<configuration>
    <input>
        <net-file value="net.net.xml"/>
        <route-files value="routes.rou.xml"/>
        <gui-settings-file value="setting.settings.xml"/>
	<additional-files value="detectors.det.xml"/>
    </input>
    <time>
        <begin value="0"/>
        <end value="3000"/>
    </time>
</configuration>