<additional>
  <inductionLoop id="det_1to0_0" lane="1to0_0" pos="-50" freq="3000"
   file="out.xml" friendlyPos="true"/>

  <inductionLoop id="det_1to0_1" lane="1to0_1" pos="-50" freq="3000"
   file="out.xml" friendlyPos="true"/>



  <inductionLoop id="det_2to0_0" lane="2to0_0" pos="-50" freq="3000"
   file="out.xml" friendlyPos="true"/>

  <inductionLoop id="det_2to0_1" lane="2to0_1" pos="-50" freq="3000"
   file="out.xml" friendlyPos="true"/>

  <inductionLoop id="det_2to0_2" lane="2to0_2" pos="-50" freq="3000"
   file="out.xml" friendlyPos="true"/>



  <inductionLoop id="det_3to0_0" lane="3to0_0" pos="-50" freq="3000"
   file="out.xml" friendlyPos="true"/>

  <inductionLoop id="det_3to0_1" lane="3to0_1" pos="-50" freq="3000"
   file="out.xml" friendlyPos="true"/>



  <inductionLoop id="det_4to0_0" lane="4to0_0" pos="-50" freq="3000"
   file="out.xml" friendlyPos="true"/>

  <inductionLoop id="det_4to0_1" lane="4to0_1" pos="-50" freq="3000"
   file="out.xml" friendlyPos="true"/>
</additional>