<edges>
    <edge from="1o" to="n0" id="1to0" priority="2" numLanes="2" speed="13.9">
        <lane index="1" allow="bus"/>
    </edge>
    <edge from="n0" to="1i" id="0to1" priority="2" numLanes="2" speed="13.9"/>

    <edge from="2o" to="n0" id="2to0" priority="2" numLanes="3" speed="13.9"/>
    <edge from="n0" to="2i" id="0to2" priority="2" numLanes="1" speed="13.9"/>

    <edge from="3o" to="n0" id="3to0" priority="2" numLanes="2" speed="13.9"/>
    <edge from="n0" to="3i" id="0to3" priority="2" numLanes="1" speed="13.9"/>

    <edge from="4o" to="n0" id="4to0" priority="2" numLanes="2" speed="13.9"/>
    <edge from="n0" to="4i" id="0to4" priority="2" numLanes="1" speed="13.9"/>
</edges>