<?xml version="1.0" encoding="UTF-8"?>

<!-- generated on 03/19/19 13:47:30 by Eclipse SUMO duarouter Version 1.1.0
<configuration xmlns:xsi="http://www.w3.org/2001/XMLSchema-instance" xsi:noNamespaceSchemaLocation="http://sumo.dlr.de/xsd/duarouterConfiguration.xsd">

    <input>
        <net-file value="net.net.xml"/>
        <route-files value="routes.rou.xml"/>
    </input>

    <output>
        <output-file value="myroutes.rou.xml"/>
        <alternatives-output value="myroutes.rou.alt.xml"/>
    </output>

    <processing>
        <randomize-flows value="true"/>
    </processing>

</configuration>
-->

<routes xmlns:xsi="http://www.w3.org/2001/XMLSchema-instance" xsi:noNamespaceSchemaLocation="http://sumo.dlr.de/xsd/routes_file.xsd">
    <vehicle id="1to3.0" depart="0.79">
        <route edges="1to0 0to2"/>
    </vehicle>
    <vehicle id="2to1.0" depart="2.36">
        <route edges="2to0 0to1"/>
    </vehicle>
    <vehicle id="2to1.1" depart="2.83">
        <route edges="2to0 0to1"/>
    </vehicle>
    <vehicle id="2to3.0" depart="6.14">
        <route edges="2to0 0to3"/>
    </vehicle>
    <vehicle id="2to4.0" depart="8.55">
        <route edges="2to0 0to4"/>
    </vehicle>
    <vehicle id="1to2.0" depart="9.74">
        <route edges="1to0 0to3"/>
    </vehicle>
    <vehicle id="2to1.2" depart="11.12">
        <route edges="2to0 0to1"/>
    </vehicle>
    <vehicle id="2to3.1" depart="12.93">
        <route edges="2to0 0to3"/>
    </vehicle>
    <vehicle id="2to1.3" depart="13.05">
        <route edges="2to0 0to1"/>
    </vehicle>
    <vehicle id="1to3.1" depart="13.56">
        <route edges="1to0 0to2"/>
    </vehicle>
    <vehicle id="1to3.2" depart="16.72">
        <route edges="1to0 0to2"/>
    </vehicle>
    <vehicle id="1to3.3" depart="18.13">
        <route edges="1to0 0to2"/>
    </vehicle>
    <vehicle id="1to3.4" depart="18.39">
        <route edges="1to0 0to2"/>
    </vehicle>
    <vehicle id="4to3.0" depart="19.61">
        <route edges="4to0 0to3"/>
    </vehicle>
    <vehicle id="4to2.0" depart="20.23">
        <route edges="4to0 0to2"/>
    </vehicle>
    <vehicle id="1to3.5" depart="22.71">
        <route edges="1to0 0to2"/>
    </vehicle>
    <vehicle id="4to2.1" depart="23.05">
        <route edges="4to0 0to2"/>
    </vehicle>
    <vehicle id="2to3.2" depart="26.51">
        <route edges="2to0 0to3"/>
    </vehicle>
    <vehicle id="1to3.6" depart="27.48">
        <route edges="1to0 0to2"/>
    </vehicle>
    <vehicle id="2to1.4" depart="36.86">
        <route edges="2to0 0to1"/>
    </vehicle>
    <vehicle id="2to1.5" depart="39.03">
        <route edges="2to0 0to1"/>
    </vehicle>
    <vehicle id="1to3.7" depart="47.01">
        <route edges="1to0 0to2"/>
    </vehicle>
    <vehicle id="2to1.6" depart="50.60">
        <route edges="2to0 0to1"/>
    </vehicle>
    <vehicle id="2to3.3" depart="52.47">
        <route edges="2to0 0to3"/>
    </vehicle>
    <vehicle id="1to3.8" depart="55.65">
        <route edges="1to0 0to2"/>
    </vehicle>
    <vehicle id="1to3.9" depart="57.85">
        <route edges="1to0 0to2"/>
    </vehicle>
    <vehicle id="4to3.1" depart="70.25">
        <route edges="4to0 0to3"/>
    </vehicle>
    <vehicle id="2to4.1" depart="79.84">
        <route edges="2to0 0to4"/>
    </vehicle>
    <vehicle id="1to3.10" depart="81.63">
        <route edges="1to0 0to2"/>
    </vehicle>
    <vehicle id="4to2.2" depart="82.30">
        <route edges="4to0 0to2"/>
    </vehicle>
    <vehicle id="2to1.7" depart="88.60">
        <route edges="2to0 0to1"/>
    </vehicle>
    <vehicle id="1to3.11" depart="89.59">
        <route edges="1to0 0to2"/>
    </vehicle>
    <vehicle id="3to4.0" depart="90.56">
        <route edges="3to0 0to4"/>
    </vehicle>
    <vehicle id="2to1.8" depart="94.83">
        <route edges="2to0 0to1"/>
    </vehicle>
    <vehicle id="1to3.12" depart="100.63">
        <route edges="1to0 0to2"/>
    </vehicle>
    <vehicle id="2to1.9" depart="101.43">
        <route edges="2to0 0to1"/>
    </vehicle>
    <vehicle id="4to3.2" depart="106.94">
        <route edges="4to0 0to3"/>
    </vehicle>
    <vehicle id="2to1.10" depart="107.79">
        <route edges="2to0 0to1"/>
    </vehicle>
    <vehicle id="3to2.0" depart="107.93">
        <route edges="3to0 0to2"/>
    </vehicle>
    <vehicle id="1to3.13" depart="108.52">
        <route edges="1to0 0to2"/>
    </vehicle>
    <vehicle id="4to2.3" depart="109.27">
        <route edges="4to0 0to2"/>
    </vehicle>
    <vehicle id="4to3.3" depart="111.65">
        <route edges="4to0 0to3"/>
    </vehicle>
    <vehicle id="3to2.1" depart="114.89">
        <route edges="3to0 0to2"/>
    </vehicle>
    <vehicle id="2to1.11" depart="116.59">
        <route edges="2to0 0to1"/>
    </vehicle>
    <vehicle id="1to3.14" depart="121.78">
        <route edges="1to0 0to2"/>
    </vehicle>
    <vehicle id="4to3.4" depart="122.68">
        <route edges="4to0 0to3"/>
    </vehicle>
    <vehicle id="2to1.12" depart="128.54">
        <route edges="2to0 0to1"/>
    </vehicle>
    <vehicle id="3to2.2" depart="130.11">
        <route edges="3to0 0to2"/>
    </vehicle>
    <vehicle id="2to1.13" depart="136.66">
        <route edges="2to0 0to1"/>
    </vehicle>
    <vehicle id="2to1.14" depart="139.18">
        <route edges="2to0 0to1"/>
    </vehicle>
    <vehicle id="4to3.5" depart="146.94">
        <route edges="4to0 0to3"/>
    </vehicle>
    <vehicle id="2to3.4" depart="149.63">
        <route edges="2to0 0to3"/>
    </vehicle>
    <vehicle id="2to3.5" depart="150.40">
        <route edges="2to0 0to3"/>
    </vehicle>
    <vehicle id="2to1.15" depart="150.67">
        <route edges="2to0 0to1"/>
    </vehicle>
    <vehicle id="1to3.15" depart="158.69">
        <route edges="1to0 0to2"/>
    </vehicle>
    <vehicle id="1to3.16" depart="163.02">
        <route edges="1to0 0to2"/>
    </vehicle>
    <vehicle id="2to1.16" depart="168.38">
        <route edges="2to0 0to1"/>
    </vehicle>
    <vehicle id="1to3.17" depart="169.47">
        <route edges="1to0 0to2"/>
    </vehicle>
    <vehicle id="1to3.18" depart="169.75">
        <route edges="1to0 0to2"/>
    </vehicle>
    <vehicle id="2to1.17" depart="170.05">
        <route edges="2to0 0to1"/>
    </vehicle>
    <vehicle id="4to3.6" depart="171.44">
        <route edges="4to0 0to3"/>
    </vehicle>
    <vehicle id="2to1.18" depart="179.52">
        <route edges="2to0 0to1"/>
    </vehicle>
    <vehicle id="2to4.2" depart="181.60">
        <route edges="2to0 0to4"/>
    </vehicle>
    <vehicle id="1to3.19" depart="186.01">
        <route edges="1to0 0to2"/>
    </vehicle>
    <vehicle id="3to4.1" depart="187.53">
        <route edges="3to0 0to4"/>
    </vehicle>
    <vehicle id="1to3.20" depart="188.13">
        <route edges="1to0 0to2"/>
    </vehicle>
    <vehicle id="2to1.19" depart="188.21">
        <route edges="2to0 0to1"/>
    </vehicle>
    <vehicle id="2to1.20" depart="189.20">
        <route edges="2to0 0to1"/>
    </vehicle>
    <vehicle id="3to1.0" depart="189.34">
        <route edges="3to0 0to1"/>
    </vehicle>
    <vehicle id="3to1.1" depart="191.24">
        <route edges="3to0 0to1"/>
    </vehicle>
    <vehicle id="1to3.21" depart="196.41">
        <route edges="1to0 0to2"/>
    </vehicle>
    <vehicle id="1to3.22" depart="201.67">
        <route edges="1to0 0to2"/>
    </vehicle>
    <vehicle id="2to1.21" depart="202.94">
        <route edges="2to0 0to1"/>
    </vehicle>
    <vehicle id="2to1.22" depart="207.58">
        <route edges="2to0 0to1"/>
    </vehicle>
    <vehicle id="1to3.23" depart="207.72">
        <route edges="1to0 0to2"/>
    </vehicle>
    <vehicle id="2to4.3" depart="208.04">
        <route edges="2to0 0to4"/>
    </vehicle>
    <vehicle id="1to3.24" depart="209.51">
        <route edges="1to0 0to2"/>
    </vehicle>
    <vehicle id="2to1.23" depart="210.76">
        <route edges="2to0 0to1"/>
    </vehicle>
    <vehicle id="2to1.24" depart="211.05">
        <route edges="2to0 0to1"/>
    </vehicle>
    <vehicle id="1to3.25" depart="212.57">
        <route edges="1to0 0to2"/>
    </vehicle>
    <vehicle id="2to1.25" depart="214.16">
        <route edges="2to0 0to1"/>
    </vehicle>
    <vehicle id="2to1.26" depart="215.86">
        <route edges="2to0 0to1"/>
    </vehicle>
    <vehicle id="4to3.7" depart="220.26">
        <route edges="4to0 0to3"/>
    </vehicle>
    <vehicle id="4to3.8" depart="220.65">
        <route edges="4to0 0to3"/>
    </vehicle>
    <vehicle id="2to1.27" depart="222.36">
        <route edges="2to0 0to1"/>
    </vehicle>
    <vehicle id="3to2.3" depart="224.07">
        <route edges="3to0 0to2"/>
    </vehicle>
    <vehicle id="2to1.28" depart="225.98">
        <route edges="2to0 0to1"/>
    </vehicle>
    <vehicle id="2to1.29" depart="229.60">
        <route edges="2to0 0to1"/>
    </vehicle>
    <vehicle id="2to1.30" depart="235.68">
        <route edges="2to0 0to1"/>
    </vehicle>
    <vehicle id="1to3.26" depart="238.38">
        <route edges="1to0 0to2"/>
    </vehicle>
    <vehicle id="2to1.31" depart="240.76">
        <route edges="2to0 0to1"/>
    </vehicle>
    <vehicle id="2to1.32" depart="241.82">
        <route edges="2to0 0to1"/>
    </vehicle>
    <vehicle id="2to1.33" depart="244.16">
        <route edges="2to0 0to1"/>
    </vehicle>
    <vehicle id="2to1.34" depart="254.09">
        <route edges="2to0 0to1"/>
    </vehicle>
    <vehicle id="3to1.2" depart="265.28">
        <route edges="3to0 0to1"/>
    </vehicle>
    <vehicle id="4to2.4" depart="269.15">
        <route edges="4to0 0to2"/>
    </vehicle>
    <vehicle id="4to3.9" depart="276.27">
        <route edges="4to0 0to3"/>
    </vehicle>
    <vehicle id="3to2.4" depart="280.53">
        <route edges="3to0 0to2"/>
    </vehicle>
    <vehicle id="2to1.35" depart="282.70">
        <route edges="2to0 0to1"/>
    </vehicle>
    <vehicle id="2to1.36" depart="289.45">
        <route edges="2to0 0to1"/>
    </vehicle>
    <vehicle id="2to1.37" depart="292.21">
        <route edges="2to0 0to1"/>
    </vehicle>
    <vehicle id="2to4.4" depart="292.32">
        <route edges="2to0 0to4"/>
    </vehicle>
    <vehicle id="4to3.10" depart="294.01">
        <route edges="4to0 0to3"/>
    </vehicle>
    <vehicle id="2to1.38" depart="305.15">
        <route edges="2to0 0to1"/>
    </vehicle>
    <vehicle id="3to2.5" depart="306.36">
        <route edges="3to0 0to2"/>
    </vehicle>
    <vehicle id="2to1.39" depart="311.58">
        <route edges="2to0 0to1"/>
    </vehicle>
    <vehicle id="2to1.40" depart="312.98">
        <route edges="2to0 0to1"/>
    </vehicle>
    <vehicle id="4to3.11" depart="314.38">
        <route edges="4to0 0to3"/>
    </vehicle>
    <vehicle id="1to3.27" depart="315.31">
        <route edges="1to0 0to2"/>
    </vehicle>
    <vehicle id="1to3.28" depart="319.61">
        <route edges="1to0 0to2"/>
    </vehicle>
    <vehicle id="2to4.5" depart="320.66">
        <route edges="2to0 0to4"/>
    </vehicle>
    <vehicle id="2to1.41" depart="321.07">
        <route edges="2to0 0to1"/>
    </vehicle>
    <vehicle id="1to3.29" depart="322.82">
        <route edges="1to0 0to2"/>
    </vehicle>
    <vehicle id="1to3.30" depart="325.69">
        <route edges="1to0 0to2"/>
    </vehicle>
    <vehicle id="2to1.42" depart="326.27">
        <route edges="2to0 0to1"/>
    </vehicle>
    <vehicle id="3to1.3" depart="327.86">
        <route edges="3to0 0to1"/>
    </vehicle>
    <vehicle id="4to3.12" depart="331.23">
        <route edges="4to0 0to3"/>
    </vehicle>
    <vehicle id="2to1.43" depart="337.63">
        <route edges="2to0 0to1"/>
    </vehicle>
    <vehicle id="3to2.6" depart="340.73">
        <route edges="3to0 0to2"/>
    </vehicle>
    <vehicle id="2to1.44" depart="342.87">
        <route edges="2to0 0to1"/>
    </vehicle>
    <vehicle id="3to1.4" depart="343.35">
        <route edges="3to0 0to1"/>
    </vehicle>
    <vehicle id="1to3.31" depart="345.65">
        <route edges="1to0 0to2"/>
    </vehicle>
    <vehicle id="2to1.45" depart="349.67">
        <route edges="2to0 0to1"/>
    </vehicle>
    <vehicle id="2to4.6" depart="350.79">
        <route edges="2to0 0to4"/>
    </vehicle>
    <vehicle id="1to3.32" depart="352.22">
        <route edges="1to0 0to2"/>
    </vehicle>
    <vehicle id="1to3.33" depart="352.32">
        <route edges="1to0 0to2"/>
    </vehicle>
    <vehicle id="1to3.34" depart="353.09">
        <route edges="1to0 0to2"/>
    </vehicle>
    <vehicle id="2to1.46" depart="357.13">
        <route edges="2to0 0to1"/>
    </vehicle>
    <vehicle id="1to3.35" depart="363.29">
        <route edges="1to0 0to2"/>
    </vehicle>
    <vehicle id="1to3.36" depart="363.53">
        <route edges="1to0 0to2"/>
    </vehicle>
    <vehicle id="4to2.5" depart="368.31">
        <route edges="4to0 0to2"/>
    </vehicle>
    <vehicle id="1to3.37" depart="368.78">
        <route edges="1to0 0to2"/>
    </vehicle>
    <vehicle id="1to3.38" depart="370.79">
        <route edges="1to0 0to2"/>
    </vehicle>
    <vehicle id="1to3.39" depart="381.92">
        <route edges="1to0 0to2"/>
    </vehicle>
    <vehicle id="3to2.7" depart="382.07">
        <route edges="3to0 0to2"/>
    </vehicle>
    <vehicle id="3to1.5" depart="382.67">
        <route edges="3to0 0to1"/>
    </vehicle>
    <vehicle id="1to3.40" depart="382.76">
        <route edges="1to0 0to2"/>
    </vehicle>
    <vehicle id="1to3.41" depart="386.17">
        <route edges="1to0 0to2"/>
    </vehicle>
    <vehicle id="4to3.13" depart="393.73">
        <route edges="4to0 0to3"/>
    </vehicle>
    <vehicle id="1to3.42" depart="397.95">
        <route edges="1to0 0to2"/>
    </vehicle>
    <vehicle id="2to1.47" depart="398.44">
        <route edges="2to0 0to1"/>
    </vehicle>
    <vehicle id="1to2.1" depart="400.80">
        <route edges="1to0 0to3"/>
    </vehicle>
    <vehicle id="1to3.43" depart="401.16">
        <route edges="1to0 0to2"/>
    </vehicle>
    <vehicle id="1to3.44" depart="401.49">
        <route edges="1to0 0to2"/>
    </vehicle>
    <vehicle id="1to3.45" depart="407.58">
        <route edges="1to0 0to2"/>
    </vehicle>
    <vehicle id="1to3.46" depart="410.68">
        <route edges="1to0 0to2"/>
    </vehicle>
    <vehicle id="3to4.2" depart="411.21">
        <route edges="3to0 0to4"/>
    </vehicle>
    <vehicle id="1to3.47" depart="417.29">
        <route edges="1to0 0to2"/>
    </vehicle>
    <vehicle id="4to3.14" depart="419.01">
        <route edges="4to0 0to3"/>
    </vehicle>
    <vehicle id="3to4.3" depart="420.02">
        <route edges="3to0 0to4"/>
    </vehicle>
    <vehicle id="2to3.6" depart="420.68">
        <route edges="2to0 0to3"/>
    </vehicle>
    <vehicle id="2to3.7" depart="422.38">
        <route edges="2to0 0to3"/>
    </vehicle>
    <vehicle id="2to1.48" depart="422.96">
        <route edges="2to0 0to1"/>
    </vehicle>
    <vehicle id="1to3.48" depart="423.68">
        <route edges="1to0 0to2"/>
    </vehicle>
    <vehicle id="2to1.49" depart="424.84">
        <route edges="2to0 0to1"/>
    </vehicle>
    <vehicle id="1to3.49" depart="425.96">
        <route edges="1to0 0to2"/>
    </vehicle>
    <vehicle id="2to1.50" depart="426.92">
        <route edges="2to0 0to1"/>
    </vehicle>
    <vehicle id="2to1.51" depart="429.67">
        <route edges="2to0 0to1"/>
    </vehicle>
    <vehicle id="1to3.50" depart="433.87">
        <route edges="1to0 0to2"/>
    </vehicle>
    <vehicle id="4to3.15" depart="435.18">
        <route edges="4to0 0to3"/>
    </vehicle>
    <vehicle id="2to1.52" depart="435.93">
        <route edges="2to0 0to1"/>
    </vehicle>
    <vehicle id="1to3.51" depart="436.43">
        <route edges="1to0 0to2"/>
    </vehicle>
    <vehicle id="2to1.53" depart="441.97">
        <route edges="2to0 0to1"/>
    </vehicle>
    <vehicle id="2to1.54" depart="446.89">
        <route edges="2to0 0to1"/>
    </vehicle>
    <vehicle id="1to3.52" depart="447.19">
        <route edges="1to0 0to2"/>
    </vehicle>
    <vehicle id="1to3.53" depart="448.25">
        <route edges="1to0 0to2"/>
    </vehicle>
    <vehicle id="3to2.8" depart="461.59">
        <route edges="3to0 0to2"/>
    </vehicle>
    <vehicle id="4to2.6" depart="462.35">
        <route edges="4to0 0to2"/>
    </vehicle>
    <vehicle id="2to1.55" depart="462.52">
        <route edges="2to0 0to1"/>
    </vehicle>
    <vehicle id="3to2.9" depart="462.72">
        <route edges="3to0 0to2"/>
    </vehicle>
    <vehicle id="2to1.56" depart="464.16">
        <route edges="2to0 0to1"/>
    </vehicle>
    <vehicle id="1to2.2" depart="476.94">
        <route edges="1to0 0to3"/>
    </vehicle>
    <vehicle id="3to2.10" depart="477.14">
        <route edges="3to0 0to2"/>
    </vehicle>
    <vehicle id="2to1.57" depart="478.93">
        <route edges="2to0 0to1"/>
    </vehicle>
    <vehicle id="3to4.4" depart="479.31">
        <route edges="3to0 0to4"/>
    </vehicle>
    <vehicle id="2to1.58" depart="490.44">
        <route edges="2to0 0to1"/>
    </vehicle>
    <vehicle id="1to3.54" depart="491.59">
        <route edges="1to0 0to2"/>
    </vehicle>
    <vehicle id="1to3.55" depart="494.74">
        <route edges="1to0 0to2"/>
    </vehicle>
    <vehicle id="2to1.59" depart="505.51">
        <route edges="2to0 0to1"/>
    </vehicle>
    <vehicle id="1to3.56" depart="506.14">
        <route edges="1to0 0to2"/>
    </vehicle>
    <vehicle id="2to1.60" depart="508.52">
        <route edges="2to0 0to1"/>
    </vehicle>
    <vehicle id="3to4.5" depart="509.53">
        <route edges="3to0 0to4"/>
    </vehicle>
    <vehicle id="3to1.6" depart="521.70">
        <route edges="3to0 0to1"/>
    </vehicle>
    <vehicle id="2to1.61" depart="541.29">
        <route edges="2to0 0to1"/>
    </vehicle>
    <vehicle id="1to3.57" depart="542.30">
        <route edges="1to0 0to2"/>
    </vehicle>
    <vehicle id="4to3.16" depart="546.44">
        <route edges="4to0 0to3"/>
    </vehicle>
    <vehicle id="3to2.11" depart="548.04">
        <route edges="3to0 0to2"/>
    </vehicle>
    <vehicle id="2to1.62" depart="553.25">
        <route edges="2to0 0to1"/>
    </vehicle>
    <vehicle id="1to3.58" depart="555.59">
        <route edges="1to0 0to2"/>
    </vehicle>
    <vehicle id="2to1.63" depart="555.69">
        <route edges="2to0 0to1"/>
    </vehicle>
    <vehicle id="1to3.59" depart="557.09">
        <route edges="1to0 0to2"/>
    </vehicle>
    <vehicle id="1to3.60" depart="558.98">
        <route edges="1to0 0to2"/>
    </vehicle>
    <vehicle id="2to1.64" depart="560.10">
        <route edges="2to0 0to1"/>
    </vehicle>
    <vehicle id="2to1.65" depart="561.79">
        <route edges="2to0 0to1"/>
    </vehicle>
    <vehicle id="2to1.66" depart="561.95">
        <route edges="2to0 0to1"/>
    </vehicle>
    <vehicle id="2to3.8" depart="563.11">
        <route edges="2to0 0to3"/>
    </vehicle>
    <vehicle id="2to1.67" depart="568.32">
        <route edges="2to0 0to1"/>
    </vehicle>
    <vehicle id="3to2.12" depart="571.57">
        <route edges="3to0 0to2"/>
    </vehicle>
    <vehicle id="1to3.61" depart="572.23">
        <route edges="1to0 0to2"/>
    </vehicle>
    <vehicle id="3to1.7" depart="573.43">
        <route edges="3to0 0to1"/>
    </vehicle>
    <vehicle id="2to1.68" depart="574.15">
        <route edges="2to0 0to1"/>
    </vehicle>
    <vehicle id="2to1.69" depart="574.27">
        <route edges="2to0 0to1"/>
    </vehicle>
    <vehicle id="1to3.62" depart="581.56">
        <route edges="1to0 0to2"/>
    </vehicle>
    <vehicle id="2to1.70" depart="582.47">
        <route edges="2to0 0to1"/>
    </vehicle>
    <vehicle id="1to3.63" depart="587.90">
        <route edges="1to0 0to2"/>
    </vehicle>
    <vehicle id="2to1.71" depart="592.10">
        <route edges="2to0 0to1"/>
    </vehicle>
    <vehicle id="2to1.72" depart="596.00">
        <route edges="2to0 0to1"/>
    </vehicle>
    <vehicle id="1to3.64" depart="596.97">
        <route edges="1to0 0to2"/>
    </vehicle>
    <vehicle id="1to3.65" depart="597.95">
        <route edges="1to0 0to2"/>
    </vehicle>
    <vehicle id="2to1.73" depart="600.40">
        <route edges="2to0 0to1"/>
    </vehicle>
    <vehicle id="2to1.74" depart="604.53">
        <route edges="2to0 0to1"/>
    </vehicle>
    <vehicle id="2to1.75" depart="609.78">
        <route edges="2to0 0to1"/>
    </vehicle>
    <vehicle id="1to3.66" depart="610.28">
        <route edges="1to0 0to2"/>
    </vehicle>
    <vehicle id="4to2.7" depart="611.41">
        <route edges="4to0 0to2"/>
    </vehicle>
    <vehicle id="1to3.67" depart="617.57">
        <route edges="1to0 0to2"/>
    </vehicle>
    <vehicle id="4to3.17" depart="617.73">
        <route edges="4to0 0to3"/>
    </vehicle>
    <vehicle id="1to3.68" depart="620.30">
        <route edges="1to0 0to2"/>
    </vehicle>
    <vehicle id="1to3.69" depart="627.48">
        <route edges="1to0 0to2"/>
    </vehicle>
    <vehicle id="1to3.70" depart="628.79">
        <route edges="1to0 0to2"/>
    </vehicle>
    <vehicle id="2to1.76" depart="634.78">
        <route edges="2to0 0to1"/>
    </vehicle>
    <vehicle id="4to2.8" depart="635.17">
        <route edges="4to0 0to2"/>
    </vehicle>
    <vehicle id="2to1.77" depart="640.55">
        <route edges="2to0 0to1"/>
    </vehicle>
    <vehicle id="2to1.78" depart="640.86">
        <route edges="2to0 0to1"/>
    </vehicle>
    <vehicle id="2to1.79" depart="652.54">
        <route edges="2to0 0to1"/>
    </vehicle>
    <vehicle id="1to2.3" depart="654.29">
        <route edges="1to0 0to3"/>
    </vehicle>
    <vehicle id="1to3.71" depart="656.16">
        <route edges="1to0 0to2"/>
    </vehicle>
    <vehicle id="2to3.9" depart="663.46">
        <route edges="2to0 0to3"/>
    </vehicle>
    <vehicle id="2to1.80" depart="665.77">
        <route edges="2to0 0to1"/>
    </vehicle>
    <vehicle id="1to3.72" depart="666.67">
        <route edges="1to0 0to2"/>
    </vehicle>
    <vehicle id="2to1.81" depart="666.97">
        <route edges="2to0 0to1"/>
    </vehicle>
    <vehicle id="2to1.82" depart="667.41">
        <route edges="2to0 0to1"/>
    </vehicle>
    <vehicle id="1to3.73" depart="669.55">
        <route edges="1to0 0to2"/>
    </vehicle>
    <vehicle id="1to3.74" depart="674.42">
        <route edges="1to0 0to2"/>
    </vehicle>
    <vehicle id="2to4.7" depart="675.61">
        <route edges="2to0 0to4"/>
    </vehicle>
    <vehicle id="2to1.83" depart="676.47">
        <route edges="2to0 0to1"/>
    </vehicle>
    <vehicle id="2to1.84" depart="676.92">
        <route edges="2to0 0to1"/>
    </vehicle>
    <vehicle id="2to3.10" depart="679.22">
        <route edges="2to0 0to3"/>
    </vehicle>
    <vehicle id="1to3.75" depart="688.48">
        <route edges="1to0 0to2"/>
    </vehicle>
    <vehicle id="2to1.85" depart="689.37">
        <route edges="2to0 0to1"/>
    </vehicle>
    <vehicle id="2to1.86" depart="693.28">
        <route edges="2to0 0to1"/>
    </vehicle>
    <vehicle id="1to3.76" depart="696.11">
        <route edges="1to0 0to2"/>
    </vehicle>
    <vehicle id="1to3.77" depart="697.79">
        <route edges="1to0 0to2"/>
    </vehicle>
    <vehicle id="4to2.9" depart="698.77">
        <route edges="4to0 0to2"/>
    </vehicle>
    <vehicle id="2to3.11" depart="700.29">
        <route edges="2to0 0to3"/>
    </vehicle>
    <vehicle id="1to3.78" depart="702.02">
        <route edges="1to0 0to2"/>
    </vehicle>
    <vehicle id="2to1.87" depart="709.27">
        <route edges="2to0 0to1"/>
    </vehicle>
    <vehicle id="2to1.88" depart="709.44">
        <route edges="2to0 0to1"/>
    </vehicle>
    <vehicle id="2to1.89" depart="720.77">
        <route edges="2to0 0to1"/>
    </vehicle>
    <vehicle id="1to3.79" depart="724.95">
        <route edges="1to0 0to2"/>
    </vehicle>
    <vehicle id="4to3.18" depart="726.65">
        <route edges="4to0 0to3"/>
    </vehicle>
    <vehicle id="2to1.90" depart="735.11">
        <route edges="2to0 0to1"/>
    </vehicle>
    <vehicle id="2to1.91" depart="735.71">
        <route edges="2to0 0to1"/>
    </vehicle>
    <vehicle id="2to1.92" depart="739.90">
        <route edges="2to0 0to1"/>
    </vehicle>
    <vehicle id="2to1.93" depart="741.96">
        <route edges="2to0 0to1"/>
    </vehicle>
    <vehicle id="3to1.8" depart="744.62">
        <route edges="3to0 0to1"/>
    </vehicle>
    <vehicle id="2to4.8" depart="748.54">
        <route edges="2to0 0to4"/>
    </vehicle>
    <vehicle id="1to2.4" depart="754.69">
        <route edges="1to0 0to3"/>
    </vehicle>
    <vehicle id="2to1.94" depart="759.36">
        <route edges="2to0 0to1"/>
    </vehicle>
    <vehicle id="1to3.80" depart="759.41">
        <route edges="1to0 0to2"/>
    </vehicle>
    <vehicle id="4to3.19" depart="761.23">
        <route edges="4to0 0to3"/>
    </vehicle>
    <vehicle id="2to4.9" depart="763.08">
        <route edges="2to0 0to4"/>
    </vehicle>
    <vehicle id="1to3.81" depart="764.28">
        <route edges="1to0 0to2"/>
    </vehicle>
    <vehicle id="1to3.82" depart="765.39">
        <route edges="1to0 0to2"/>
    </vehicle>
    <vehicle id="2to1.95" depart="767.89">
        <route edges="2to0 0to1"/>
    </vehicle>
    <vehicle id="2to1.96" depart="777.22">
        <route edges="2to0 0to1"/>
    </vehicle>
    <vehicle id="3to4.6" depart="780.76">
        <route edges="3to0 0to4"/>
    </vehicle>
    <vehicle id="1to3.83" depart="782.98">
        <route edges="1to0 0to2"/>
    </vehicle>
    <vehicle id="2to3.12" depart="783.83">
        <route edges="2to0 0to3"/>
    </vehicle>
    <vehicle id="2to1.97" depart="784.00">
        <route edges="2to0 0to1"/>
    </vehicle>
    <vehicle id="1to3.84" depart="785.27">
        <route edges="1to0 0to2"/>
    </vehicle>
    <vehicle id="1to3.85" depart="787.08">
        <route edges="1to0 0to2"/>
    </vehicle>
    <vehicle id="1to3.86" depart="790.51">
        <route edges="1to0 0to2"/>
    </vehicle>
    <vehicle id="1to3.87" depart="790.89">
        <route edges="1to0 0to2"/>
    </vehicle>
    <vehicle id="4to3.20" depart="793.66">
        <route edges="4to0 0to3"/>
    </vehicle>
    <vehicle id="4to3.21" depart="803.45">
        <route edges="4to0 0to3"/>
    </vehicle>
    <vehicle id="2to1.98" depart="809.06">
        <route edges="2to0 0to1"/>
    </vehicle>
    <vehicle id="1to3.88" depart="809.33">
        <route edges="1to0 0to2"/>
    </vehicle>
    <vehicle id="2to1.99" depart="809.38">
        <route edges="2to0 0to1"/>
    </vehicle>
    <vehicle id="2to1.100" depart="812.31">
        <route edges="2to0 0to1"/>
    </vehicle>
    <vehicle id="2to1.101" depart="813.50">
        <route edges="2to0 0to1"/>
    </vehicle>
    <vehicle id="2to1.102" depart="817.61">
        <route edges="2to0 0to1"/>
    </vehicle>
    <vehicle id="1to3.89" depart="819.88">
        <route edges="1to0 0to2"/>
    </vehicle>
    <vehicle id="2to1.103" depart="821.93">
        <route edges="2to0 0to1"/>
    </vehicle>
    <vehicle id="2to4.10" depart="825.84">
        <route edges="2to0 0to4"/>
    </vehicle>
    <vehicle id="2to1.104" depart="826.70">
        <route edges="2to0 0to1"/>
    </vehicle>
    <vehicle id="1to3.90" depart="833.34">
        <route edges="1to0 0to2"/>
    </vehicle>
    <vehicle id="2to1.105" depart="835.99">
        <route edges="2to0 0to1"/>
    </vehicle>
    <vehicle id="2to1.106" depart="836.65">
        <route edges="2to0 0to1"/>
    </vehicle>
    <vehicle id="2to3.13" depart="837.30">
        <route edges="2to0 0to3"/>
    </vehicle>
    <vehicle id="2to1.107" depart="838.12">
        <route edges="2to0 0to1"/>
    </vehicle>
    <vehicle id="1to3.91" depart="842.52">
        <route edges="1to0 0to2"/>
    </vehicle>
    <vehicle id="3to4.7" depart="845.46">
        <route edges="3to0 0to4"/>
    </vehicle>
    <vehicle id="2to1.108" depart="845.77">
        <route edges="2to0 0to1"/>
    </vehicle>
    <vehicle id="2to1.109" depart="846.12">
        <route edges="2to0 0to1"/>
    </vehicle>
    <vehicle id="2to1.110" depart="852.86">
        <route edges="2to0 0to1"/>
    </vehicle>
    <vehicle id="2to1.111" depart="852.89">
        <route edges="2to0 0to1"/>
    </vehicle>
    <vehicle id="1to3.92" depart="859.60">
        <route edges="1to0 0to2"/>
    </vehicle>
    <vehicle id="3to4.8" depart="859.97">
        <route edges="3to0 0to4"/>
    </vehicle>
    <vehicle id="2to3.14" depart="861.23">
        <route edges="2to0 0to3"/>
    </vehicle>
    <vehicle id="2to1.112" depart="864.66">
        <route edges="2to0 0to1"/>
    </vehicle>
    <vehicle id="1to3.93" depart="869.60">
        <route edges="1to0 0to2"/>
    </vehicle>
    <vehicle id="2to1.113" depart="869.73">
        <route edges="2to0 0to1"/>
    </vehicle>
    <vehicle id="2to1.114" depart="870.35">
        <route edges="2to0 0to1"/>
    </vehicle>
    <vehicle id="3to4.9" depart="870.97">
        <route edges="3to0 0to4"/>
    </vehicle>
    <vehicle id="2to1.115" depart="873.04">
        <route edges="2to0 0to1"/>
    </vehicle>
    <vehicle id="2to1.116" depart="873.85">
        <route edges="2to0 0to1"/>
    </vehicle>
    <vehicle id="2to1.117" depart="873.90">
        <route edges="2to0 0to1"/>
    </vehicle>
    <vehicle id="2to1.118" depart="876.21">
        <route edges="2to0 0to1"/>
    </vehicle>
    <vehicle id="2to1.119" depart="884.88">
        <route edges="2to0 0to1"/>
    </vehicle>
    <vehicle id="3to1.9" depart="887.94">
        <route edges="3to0 0to1"/>
    </vehicle>
    <vehicle id="2to1.120" depart="890.10">
        <route edges="2to0 0to1"/>
    </vehicle>
    <vehicle id="2to1.121" depart="890.10">
        <route edges="2to0 0to1"/>
    </vehicle>
    <vehicle id="1to3.94" depart="891.90">
        <route edges="1to0 0to2"/>
    </vehicle>
    <vehicle id="2to1.122" depart="896.61">
        <route edges="2to0 0to1"/>
    </vehicle>
    <vehicle id="3to4.10" depart="899.35">
        <route edges="3to0 0to4"/>
    </vehicle>
    <vehicle id="2to1.123" depart="910.95">