<?xml version="1.0" encoding="UTF-8"?>

<!-- generated on 05/14/19 17:19:07 by Eclipse SUMO netedit Version 1.1.0
<configuration xmlns:xsi="http://www.w3.org/2001/XMLSchema-instance" xsi:noNamespaceSchemaLocation="http://sumo.dlr.de/xsd/netconvertConfiguration.xsd">

    <input>
        <sumo-net-file value="C:\Users\Trung\Repos\ProbabilistiskModellering\SUMOFiles\net.net.xml"/>
    </input>

    <output>
        <output-file value="C:\Users\Trung\Repos\ProbabilistiskModellering\SUMOFiles\net.net.xml"/>
    </output>

    <processing>
        <geometry.max-grade.fix value="false"/>
        <offset.disable-normalization value="true"/>
        <lefthand value="false"/>
    </processing>

    <junctions>
        <no-turnarounds value="true"/>
        <junctions.corner-detail value="5"/>
        <junctions.limit-turn-speed value="5.5"/>
        <rectangular-lane-cut value="false"/>
    </junctions>

    <pedestrian>
        <walkingareas value="false"/>
    </pedestrian>

    <visualisation>
        <registry-viewport value="true"/>
    </visualisation>

</configuration>
-->

<net version="1.1" junctionCornerDetail="5" limitTurnSpeed="5.50" xmlns:xsi="http://www.w3.org/2001/XMLSchema-instance" xsi:noNamespaceSchemaLocation="http://sumo.dlr.de/xsd/net_file.xsd">

    <location netOffset="500.00,500.00" convBoundary="0.00,0.00,1000.00,1000.00" origBoundary="-500.00,-500.00,500.00,500.00" projParameter="!"/>

    <edge id=":n0_0" function="internal">
        <lane id=":n0_0_0" index="0" speed="7.33" length="11.73" shape="495.20,513.60 494.85,509.75 493.80,507.00 492.05,505.35 489.60,504.80"/>
    </edge>
    <edge id=":n0_1" function="internal">
        <lane id=":n0_1_0" index="0" speed="20.00" length="24.24" shape="495.20,513.60 495.70,506.33 496.80,499.72 497.90,494.05 498.40,489.60"/>
    </edge>
    <edge id=":n0_2" function="internal">
        <lane id=":n0_2_0" index="0" speed="9.84" length="8.68" shape="498.40,513.60 499.15,506.95 500.00,505.16"/>
    </edge>
    <edge id=":n0_11" function="internal">
        <lane id=":n0_11_0" index="0" speed="9.84" length="13.32" shape="500.00,505.16 501.40,502.20 505.15,499.35 510.40,498.40"/>
    </edge>
    <edge id=":n0_3" function="internal">
        <lane id=":n0_3_0" index="0" speed="7.33" length="11.73" shape="510.40,508.00 506.55,508.35 503.80,509.40 502.15,511.15 501.60,513.60"/>
    </edge>
    <edge id=":n0_4" function="internal">
        <lane id=":n0_4_0" index="0" speed="20.00" length="21.12" shape="510.40,508.00 504.12,507.50 499.80,506.40 495.59,505.30 489.60,504.80"/>
        <lane id=":n0_4_1" index="1" speed="20.00" length="21.12" shape="510.40,504.80 504.12,504.30 499.80,503.20 495.59,502.10 489.60,501.60"/>
    </edge>
    <edge id=":n0_6" function="internal">
        <lane id=":n0_6_0" index="0" speed="9.26" length="10.03" shape="510.40,501.60 505.15,500.85 501.40,498.60 501.22,498.30"/>
    </edge>
    <edge id=":n0_12" function="internal">
        <lane id=":n0_12_0" index="0" speed="9.26" length="9.33" shape="501.22,498.30 499.15,494.85 498.40,489.60"/>
    </edge>
    <edge id=":n0_7" function="internal">
        <lane id=":n0_7_0" index="0" speed="7.33" length="11.73" shape="504.80,489.60 505.15,493.45 506.20,496.20 507.95,497.85 510.40,498.40"/>
    </edge>
    <edge id=":n0_8" function="internal">
        <lane id=":n0_8_0" index="0" speed="20.00" length="24.00" shape="501.60,489.60 501.60,513.60"/>
    </edge>
    <edge id=":n0_9" function="internal">
        <lane id=":n0_9_0" index="0" speed="20.00" length="21.09" shape="489.60,495.20 496.37,495.70 501.88,496.80 506.45,497.90 510.40,498.40"/>
    </edge>
    <edge id=":n0_10" function="internal">
        <lane id=":n0_10_0" index="0" speed="9.84" length="7.61" shape="489.60,498.40 494.85,499.35 496.66,500.73"/>
    </edge>
    <edge id=":n0_13" function="internal">
        <lane id=":n0_13_0" index="0" speed="9.84" length="14.38" shape="496.66,500.73 498.60,502.20 500.85,506.95 501.60,513.60"/>
    </edge>

    <edge id="0to1" from="n0" to="1i" priority="2">
        <lane id="0to1_0" index="0" speed="20.00" length="489.60" shape="489.60,504.80 0.00,504.80"/>
        <lane id="0to1_1" index="1" speed="20.00" length="489.60" shape="489.60,501.60 0.00,501.60"/>
    </edge>
    <edge id="0to2" from="n0" to="2i" priority="2">
        <lane id="0to2_0" index="0" speed="20.00" length="489.60" shape="510.40,498.40 1000.00,498.40"/>
    </edge>
    <edge id="0to3" from="n0" to="3i" priority="2">
        <lane id="0to3_0" index="0" speed="20.00" length="486.40" shape="501.60,513.60 501.60,1000.00"/>
    </edge>
    <edge id="0to4" from="n0" to="4i" priority="2">
        <lane id="0to4_0" index="0" speed="20.00" length="489.60" shape="498.40,489.60 498.40,0.00"/>
    </edge>
    <edge id="1to0" from="1o" to="n0" priority="2">
        <lane id="1to0_0" index="0" speed="20.00" length="489.60" shape="0.00,495.20 489.60,495.20"/>
        <lane id="1to0_1" index="1" allow="bus" speed="20.00" length="489.60" shape="0.00,498.40 489.60,498.40"/>
    </edge>
    <edge id="2to0" from="2o" to="n0" priority="2">
        <lane id="2to0_0" index="0" speed="20.00" length="489.60" shape="1000.00,508.00 510.40,508.00"/>
        <lane id="2to0_1" index="1" speed="20.00" length="489.60" shape="1000.00,504.80 510.40,504.80"/>
        <lane id="2to0_2" index="2" speed="20.00" length="489.60" shape="1000.00,501.60 510.40,501.60"/>
    </edge>
    <edge id="3to0" from="3o" to="n0" priority="2">
        <lane id="3to0_0" index="0" speed="20.00" length="486.40" shape="495.20,1000.00 495.20,513.60"/>
        <lane id="3to0_1" index="1" speed="20.00" length="486.40" shape="498.40,1000.00 498.40,513.60"/>
    </edge>
    <edge id="4to0" from="4o" to="n0" priority="2">
        <lane id="4to0_0" index="0" speed="20.00" length="489.60" shape="504.80,0.00 504.80,489.60"/>
        <lane id="4to0_1" index="1" speed="20.00" length="489.60" shape="501.60,0.00 501.60,489.60"/>
    </edge>

    <tlLogic id="n0" type="static" programID="0" offset="0">
        <phase duration="29" state="rrrGGGGrrGG"/>
        <phase duration="10" state="rrryyyyrryy"/>
        <phase duration="29" state="GGGrrrrGGrr"/>
        <phase duration="5"  state="yyyrrrryyrr"/>
    </tlLogic>

    <junction id="1i" type="dead_end" x="0.00" y="500.00" incLanes="0to1_0 0to1_1" intLanes="" shape="0.00,506.40 0.00,500.00"/>
    <junction id="1o" type="dead_end" x="0.00" y="500.00" incLanes="" intLanes="" shape="0.00,500.00 0.00,493.60"/>
    <junction id="2i" type="dead_end" x="1000.00" y="500.00" incLanes="0to2_0" intLanes="" shape="1000.00,496.80 1000.00,500.00"/>
    <junction id="2o" type="dead_end" x="1000.00" y="500.00" incLanes="" intLanes="" shape="1000.00,500.00 1000.00,509.60"/>
    <junction id="3i" type="dead_end" x="500.00" y="1000.00" incLanes="0to3_0" intLanes="" shape="503.20,1000.00 500.00,1000.00"/>
    <junction id="3o" type="dead_end" x="500.00" y="1000.00" incLanes="" intLanes="" shape="500.00,1000.00 493.60,1000.00"/>
    <junction id="4i" type="dead_end" x="500.00" y="0.00" incLanes="0to4_0" intLanes="" shape="496.80,0.00 500.00,0.00"/>
    <junction id="4o" type="dead_end" x="500.00" y="0.00" incLanes="" intLanes="" shape="500.00,0.00 506.40,0.00"/>
    <junction id="n0" type="traffic_light" x="500.00" y="500.00" incLanes="3to0_0 3to0_1 2to0_0 2to0_1 2to0_2 4to0_0 4to0_1 1to0_0 1to0_1" intLanes=":n0_0_0 :n0_1_0 :n0_11_0 :n0_3_0 :n0_4_0 :n0_4_1 :n0_12_0 :n0_7_0 :n0_8_0 :n0_9_0 :n0_13_0" shape="493.60,513.60 503.20,513.60 504.00,511.38 505.00,510.60 506.40,510.04 508.20,509.71 510.40,509.60 510.40,496.80 508.18,496.00 507.40,495.00 506.84,493.60 506.51,491.80 506.40,489.60 496.80,489.60 496.00,491.82 495.00,492.60 493.60,493.16 491.80,493.49 489.60,493.60 489.60,506.40 491.82,507.20 492.60,508.20 493.16,509.60 493.49,511.40">
        <request index="0"  response="00000110000" foes="00000110000" cont="0"/>
        <request index="1"  response="11001110000" foes="11001110000" cont="0"/>
        <request index="2"  response="11111110000" foes="11111110000" cont="1"/>
        <request index="3"  response="00000000000" foes="10100000000" cont="0"/>
        <request index="4"  response="00000000100" foes="10100000111" cont="0"/>
        <request index="5"  response="00000000100" foes="10100000111" cont="0"/>
        <request index="6"  response="01000000100" foes="01100000110" cont="1"/>
        <request index="7"  response="01000000000" foes="01000000100" cont="0"/>
        <request index="8"  response="11001111000" foes="11001111100" cont="0"/>
        <request index="9"  response="00000000100" foes="00111000110" cont="0"/>
        <request index="10" response="00000111100" foes="00100111110" cont="1"/>
    </junction>

    <junction id=":n0_11_0" type="internal" x="500.00" y="505.16" incLanes=":n0_2_0 4to0_0 4to0_1" intLanes=":n0_4_0 :n0_4_1 :n0_6_0 :n0_7_0 :n0_8_0 :n0_9_0 :n0_10_0"/>
    <junction id=":n0_12_0" type="internal" x="501.22" y="498.30" incLanes=":n0_6_0 1to0_0" intLanes=":n0_1_0 :n0_2_0 :n0_8_0 :n0_9_0"/>
    <junction id=":n0_13_0" type="internal" x="496.66" y="500.73" incLanes=":n0_10_0 2to0_0 2to0_1" intLanes=":n0_1_0 :n0_2_0 :n0_3_0 :n0_4_0 :n0_4_1 :n0_8_0"/>

    <connection from="1to0" to="0to2" fromLane="0" toLane="0" via=":n0_9_0" tl="n0" linkIndex="9" dir="s" state="O"/>
    <connection from="1to0" to="0to3" fromLane="1" toLane="0" via=":n0_10_0" tl="n0" linkIndex="10" dir="l" state="o"/>
    <connection from="2to0" to="0to3" fromLane="0" toLane="0" via=":n0_3_0" tl="n0" linkIndex="3" dir="r" state="O"/>
    <connection from="2to0" to="0to1" fromLane="0" toLane="0" via=":n0_4_0" tl="n0" linkIndex="4" dir="s" state="O"/>
    <connection from="2to0" to="0to1" fromLane="1" toLane="1" via=":n0_4_1" tl="n0" linkIndex="5" dir="s" state="O"/>
    <connection from="2to0" to="0to4" fromLane="2" toLane="0" via=":n0_6_0" tl="n0" linkIndex="6" dir="l" state="o"/>
    <connection from="3to0" to="0to1" fromLane="0" toLane="0" via=":n0_0_0" tl="n0" linkIndex="0" dir="r" state="o"/>
    <connection from="3to0" to="0to4" fromLane="0" toLane="0" via=":n0_1_0" tl="n0" linkIndex="1" dir="s" state="o"/>
    <connection from="3to0" to="0to2" fromLane="1" toLane="0" via=":n0_2_0" tl="n0" linkIndex="2" dir="l" state="o"/>
    <connection from="4to0" to="0to2" fromLane="0" toLane="0" via=":n0_7_0" tl="n0" linkIndex="7" dir="r" state="o"/>
    <connection from="4to0" to="0to3" fromLane="1" toLane="0" via=":n0_8_0" tl="n0" linkIndex="8" dir="s" state="o"/>

    <connection from=":n0_0" to="0to1" fromLane="0" toLane="0" dir="r" state="M"/>
    <connection from=":n0_1" to="0to4" fromLane="0" toLane="0" dir="s" state="M"/>
    <connection from=":n0_2" to="0to2" fromLane="0" toLane="0" via=":n0_11_0" dir="l" state="m"/>
    <connection from=":n0_11" to="0to2" fromLane="0" toLane="0" dir="l" state="M"/>
    <connection from=":n0_3" to="0to3" fromLane="0" toLane="0" dir="r" state="M"/>
    <connection from=":n0_4" to="0to1" fromLane="0" toLane="0" dir="s" state="M"/>
    <connection from=":n0_4" to="0to1" fromLane="1" toLane="1" dir="s" state="M"/>
    <connection from=":n0_6" to="0to4" fromLane="0" toLane="0" via=":n0_12_0" dir="l" state="m"/>
    <connection from=":n0_12" to="0to4" fromLane="0" toLane="0" dir="l" state="M"/>
    <connection from=":n0_7" to="0to2" fromLane="0" toLane="0" dir="r" state="M"/>
    <connection from=":n0_8" to="0to3" fromLane="0" toLane="0" dir="s" state="M"/>
    <connection from=":n0_9" to="0to2" fromLane="0" toLane="0" dir="s" state="M"/>
    <connection from=":n0_10" to="0to3" fromLane="0" toLane="0" via=":n0_13_0" dir="l" state="m"/>
    <connection from=":n0_13" to="0to3" fromLane="0" toLane="0" dir="l" state="M"/>

</net>
