<nodes>
    <node id="n0" x="0" y="0" type="traffic_light"/>

    <node id="n1" x="-500" y="0" type="priority"/>
    <node id="n2" x="+500" y="0" type="priority"/>
    <node id="n3" x="0" y="+500" type="priority"/>
    <node id="n4" x="0" y="-500" type="priority"/>

    <node id="1n" x="-500" y="0" type="priority"/>
    <node id="2n" x="+500" y="0" type="priority"/>
    <node id="3n" x="0" y="+500" type="priority"/>
    <node id="4n" x="0" y="-500" type="priority"/>
</nodes>