<?xml version="1.0" encoding="UTF-8"?>

<!-- generated on 05/21/19 11:29:45 by Eclipse SUMO duarouter Version 1.2.0
<configuration xmlns:xsi="http://www.w3.org/2001/XMLSchema-instance" xsi:noNamespaceSchemaLocation="http://sumo.dlr.de/xsd/duarouterConfiguration.xsd">

    <input>
        <net-file value="net.net.xml"/>
        <route-files value="flow.rou.xml"/>
    </input>

    <output>
        <output-file value="routes.rou.xml"/>
        <alternatives-output value="routes.rou.alt.xml"/>
    </output>

    <processing>
        <randomize-flows value="true"/>
    </processing>

</configuration>
-->

<routes xmlns:xsi="http://www.w3.org/2001/XMLSchema-instance" xsi:noNamespaceSchemaLocation="http://sumo.dlr.de/xsd/routes_file.xsd">
    <vehicle id="1to2.0" depart="0.56">
        <route edges="1to0 0to2"/>
    </vehicle>
    <vehicle id="1to2.1" depart="0.79">
        <route edges="1to0 0to2"/>
    </vehicle>
    <vehicle id="2to4.0" depart="1.15">
        <route edges="2to0 0to4"/>
    </vehicle>
    <vehicle id="2to1.0" depart="1.83">
        <route edges="2to0 0to1"/>
    </vehicle>
    <vehicle id="3to2.0" depart="2.36">
        <route edges="3to0 0to2"/>
    </vehicle>
    <vehicle id="2to1.1" depart="3.84">
        <route edges="2to0 0to1"/>
    </vehicle>
    <vehicle id="1to2.2" depart="6.36">
        <route edges="1to0 0to2"/>
    </vehicle>
    <vehicle id="1to2.3" depart="7.38">
        <route edges="1to0 0to2"/>
    </vehicle>
    <vehicle id="2to1.2" depart="7.89">
        <route edges="2to0 0to1"/>
    </vehicle>
    <vehicle id="1to2.4" depart="9.74">
        <route edges="1to0 0to2"/>
    </vehicle>
    <vehicle id="2to1.3" depart="12.90">
        <route edges="2to0 0to1"/>
    </vehicle>
    <vehicle id="4to2.0" depart="13.05">
        <route edges="4to0 0to2"/>
    </vehicle>
    <vehicle id="2to3.0" depart="13.17">
        <route edges="2to0 0to3"/>
    </vehicle>
    <vehicle id="1to2.5" depart="13.56">
        <route edges="1to0 0to2"/>
    </vehicle>
    <vehicle id="2to1.4" depart="15.72">
        <route edges="2to0 0to1"/>
    </vehicle>
    <vehicle id="2to1.5" depart="16.72">
        <route edges="2to0 0to1"/>
    </vehicle>
    <vehicle id="2to1.6" depart="17.50">
        <route edges="2to0 0to1"/>
    </vehicle>
    <vehicle id="4to2.1" depart="17.81">
        <route edges="4to0 0to2"/>
    </vehicle>
    <vehicle id="1to2.6" depart="18.13">
        <route edges="1to0 0to2"/>
    </vehicle>
    <vehicle id="1to2.7" depart="18.39">
        <route edges="1to0 0to2"/>
    </vehicle>
    <vehicle id="1to2.8" depart="18.68">
        <route edges="1to0 0to2"/>
    </vehicle>
    <vehicle id="1to2.9" depart="19.60">
        <route edges="1to0 0to2"/>
    </vehicle>
    <vehicle id="2to1.7" depart="22.71">
        <route edges="2to0 0to1"/>
    </vehicle>
    <vehicle id="1to2.10" depart="25.67">
        <route edges="1to0 0to2"/>
    </vehicle>
    <vehicle id="1to2.11" depart="27.48">
        <route edges="1to0 0to2"/>
    </vehicle>
    <vehicle id="2to1.8" depart="30.86">
        <route edges="2to0 0to1"/>
    </vehicle>
    <vehicle id="2to1.9" depart="33.22">
        <route edges="2to0 0to1"/>
    </vehicle>
    <vehicle id="1to2.12" depart="33.65">
        <route edges="1to0 0to2"/>
    </vehicle>
    <vehicle id="1to2.13" depart="35.86">
        <route edges="1to0 0to2"/>
    </vehicle>
    <vehicle id="1to2.14" depart="37.69">
        <route edges="1to0 0to2"/>
    </vehicle>
    <vehicle id="2to1.10" depart="38.04">
        <route edges="2to0 0to1"/>
    </vehicle>
    <vehicle id="2to1.11" depart="39.03">
        <route edges="2to0 0to1"/>
    </vehicle>
    <vehicle id="2to1.12" depart="39.99">
        <route edges="2to0 0to1"/>
    </vehicle>
    <vehicle id="1to2.15" depart="40.24">
        <route edges="1to0 0to2"/>
    </vehicle>
    <vehicle id="1to2.16" depart="41.55">
        <route edges="1to0 0to2"/>
    </vehicle>
    <vehicle id="2to1.13" depart="42.16">
        <route edges="2to0 0to1"/>
    </vehicle>
    <vehicle id="2to1.14" depart="47.01">
        <route edges="2to0 0to1"/>
    </vehicle>
    <vehicle id="2to4.1" depart="49.13">
        <route edges="2to0 0to4"/>
    </vehicle>
    <vehicle id="3to2.1" depart="50.60">
        <route edges="3to0 0to2"/>
    </vehicle>
    <vehicle id="1to2.17" depart="52.36">
        <route edges="1to0 0to2"/>
    </vehicle>
    <vehicle id="2to1.15" depart="54.70">
        <route edges="2to0 0to1"/>
    </vehicle>
    <vehicle id="1to2.18" depart="55.65">
        <route edges="1to0 0to2"/>
    </vehicle>
    <vehicle id="1to2.19" depart="57.85">
        <route edges="1to0 0to2"/>
    </vehicle>
    <vehicle id="1to2.20" depart="63.58">
        <route edges="1to0 0to2"/>
    </vehicle>
    <vehicle id="2to1.16" depart="65.06">
        <route edges="2to0 0to1"/>
    </vehicle>
    <vehicle id="4to2.2" depart="65.72">
        <route edges="4to0 0to2"/>
    </vehicle>
    <vehicle id="2to1.17" depart="67.68">
        <route edges="2to0 0to1"/>
    </vehicle>
    <vehicle id="1to2.21" depart="69.48">
        <route edges="1to0 0to2"/>
    </vehicle>
    <vehicle id="1to2.22" depart="72.60">
        <route edges="1to0 0to2"/>
    </vehicle>
    <vehicle id="1to2.23" depart="80.26">
        <route edges="1to0 0to2"/>
    </vehicle>
    <vehicle id="2to1.18" depart="81.63">
        <route edges="2to0 0to1"/>
    </vehicle>
    <vehicle id="1to2.24" depart="82.19">
        <route edges="1to0 0to2"/>
    </vehicle>
    <vehicle id="1to2.25" depart="83.60">
        <route edges="1to0 0to2"/>
    </vehicle>
    <vehicle id="2to1.19" depart="89.59">
        <route edges="2to0 0to1"/>
    </vehicle>
    <vehicle id="2to1.20" depart="89.94">
        <route edges="2to0 0to1"/>
    </vehicle>
    <vehicle id="4to3.0" depart="94.83">
        <route edges="4to0 0to3"/>
    </vehicle>
    <vehicle id="1to2.26" depart="98.13">
        <route edges="1to0 0to2"/>
    </vehicle>
    <vehicle id="2to1.21" depart="100.63">
        <route edges="2to0 0to1"/>
    </vehicle>
    <vehicle id="2to1.22" depart="100.72">
        <route edges="2to0 0to1"/>
    </vehicle>
    <vehicle id="1to2.27" depart="101.67">
        <route edges="1to0 0to2"/>
    </vehicle>
    <vehicle id="1to2.28" depart="106.81">
        <route edges="1to0 0to2"/>
    </vehicle>
    <vehicle id="2to1.23" depart="107.79">
        <route edges="2to0 0to1"/>
    </vehicle>
    <vehicle id="1to2.29" depart="107.83">
        <route edges="1to0 0to2"/>
    </vehicle>
    <vehicle id="1to2.30" depart="108.52">
        <route edges="1to0 0to2"/>
    </vehicle>
    <vehicle id="2to1.24" depart="108.63">
        <route edges="2to0 0to1"/>
    </vehicle>
    <vehicle id="2to3.1" depart="113.34">
        <route edges="2to0 0to3"/>
    </vehicle>
    <vehicle id="2to1.25" depart="114.32">
        <route edges="2to0 0to1"/>
    </vehicle>
    <vehicle id="1to2.31" depart="115.58">
        <route edges="1to0 0to2"/>
    </vehicle>
    <vehicle id="2to1.26" depart="115.96">
        <route edges="2to0 0to1"/>
    </vehicle>
    <vehicle id="2to1.27" depart="116.59">
        <route edges="2to0 0to1"/>
    </vehicle>
    <vehicle id="2to1.28" depart="117.27">
        <route edges="2to0 0to1"/>
    </vehicle>
    <vehicle id="1to2.32" depart="121.78">
        <route edges="1to0 0to2"/>
    </vehicle>
    <vehicle id="1to2.33" depart="122.15">
        <route edges="1to0 0to2"/>
    </vehicle>
    <vehicle id="1to2.34" depart="125.46">
        <route edges="1to0 0to2"/>
    </vehicle>
    <vehicle id="3to2.2" depart="126.31">
        <route edges="3to0 0to2"/>
    </vehicle>
    <vehicle id="2to1.29" depart="126.77">
        <route edges="2to0 0to1"/>
    </vehicle>
    <vehicle id="2to1.30" depart="128.54">
        <route edges="2to0 0to1"/>
    </vehicle>
    <vehicle id="1to2.35" depart="128.73">
        <route edges="1to0 0to2"/>
    </vehicle>
    <vehicle id="2to1.31" depart="132.74">
        <route edges="2to0 0to1"/>
    </vehicle>
    <vehicle id="2to1.32" depart="134.91">
        <route edges="2to0 0to1"/>
    </vehicle>
    <vehicle id="1to2.36" depart="136.13">
        <route edges="1to0 0to2"/>
    </vehicle>
    <vehicle id="2to1.33" depart="136.95">
        <route edges="2to0 0to1"/>
    </vehicle>
    <vehicle id="2to1.34" depart="138.09">
        <route edges="2to0 0to1"/>
    </vehicle>
    <vehicle id="1to2.37" depart="142.39">
        <route edges="1to0 0to2"/>
    </vehicle>
    <vehicle id="1to2.38" depart="142.95">
        <route edges="1to0 0to2"/>
    </vehicle>
    <vehicle id="2to1.35" depart="143.83">
        <route edges="2to0 0to1"/>
    </vehicle>
    <vehicle id="4to3.1" depart="145.40">
        <route edges="4to0 0to3"/>
    </vehicle>
    <vehicle id="2to1.36" depart="147.41">
        <route edges="2to0 0to1"/>
    </vehicle>
    <vehicle id="4to2.3" depart="150.95">
        <route edges="4to0 0to2"/>
    </vehicle>
    <vehicle id="1to2.39" depart="151.18">
        <route edges="1to0 0to2"/>
    </vehicle>
    <vehicle id="2to1.37" depart="151.45">
        <route edges="2to0 0to1"/>
    </vehicle>
    <vehicle id="4to3.2" depart="151.67">
        <route edges="4to0 0to3"/>
    </vehicle>
    <vehicle id="1to2.40" depart="155.65">
        <route edges="1to0 0to2"/>
    </vehicle>
    <vehicle id="2to1.38" depart="156.05">
        <route edges="2to0 0to1"/>
    </vehicle>
    <vehicle id="1to2.41" depart="156.93">
        <route edges="1to0 0to2"/>
    </vehicle>
    <vehicle id="2to1.39" depart="158.33">
        <route edges="2to0 0to1"/>
    </vehicle>
    <vehicle id="1to2.42" depart="158.69">
        <route edges="1to0 0to2"/>
    </vehicle>
    <vehicle id="1to2.43" depart="162.06">
        <route edges="1to0 0to2"/>
    </vehicle>
    <vehicle id="1to2.44" depart="163.02">
        <route edges="1to0 0to2"/>
    </vehicle>
    <vehicle id="2to1.40" depart="167.02">
        <route edges="2to0 0to1"/>
    </vehicle>
    <vehicle id="1to2.45" depart="167.24">
        <route edges="1to0 0to2"/>
    </vehicle>
    <vehicle id="1to2.46" depart="168.77">
        <route edges="1to0 0to2"/>
    </vehicle>
    <vehicle id="1to2.47" depart="169.47">
        <route edges="1to0 0to2"/>
    </vehicle>
    <vehicle id="2to1.41" depart="169.75">
        <route edges="2to0 0to1"/>
    </vehicle>
    <vehicle id="4to2.4" depart="171.13">
        <route edges="4to0 0to2"/>
    </vehicle>
    <vehicle id="2to1.42" depart="171.81">
        <route edges="2to0 0to1"/>
    </vehicle>
    <vehicle id="2to1.43" depart="173.47">
        <route edges="2to0 0to1"/>
    </vehicle>
    <vehicle id="2to1.44" depart="174.43">
        <route edges="2to0 0to1"/>
    </vehicle>
    <vehicle id="2to1.45" depart="179.52">
        <route edges="2to0 0to1"/>
    </vehicle>
    <vehicle id="1to2.48" depart="179.74">
        <route edges="1to0 0to2"/>
    </vehicle>
    <vehicle id="2to1.46" depart="180.55">
        <route edges="2to0 0to1"/>
    </vehicle>
    <vehicle id="2to1.47" depart="181.36">
        <route edges="2to0 0to1"/>
    </vehicle>
    <vehicle id="1to2.49" depart="181.72">
        <route edges="1to0 0to2"/>
    </vehicle>
    <vehicle id="1to2.50" depart="182.59">
        <route edges="1to0 0to2"/>
    </vehicle>
    <vehicle id="1to2.51" depart="186.01">
        <route edges="1to0 0to2"/>
    </vehicle>
    <vehicle id="1to2.52" depart="188.13">
        <route edges="1to0 0to2"/>
    </vehicle>
    <vehicle id="2to1.48" depart="189.35">
        <route edges="2to0 0to1"/>
    </vehicle>
    <vehicle id="3to2.3" depart="190.04">
        <route edges="3to0 0to2"/>
    </vehicle>
    <vehicle id="1to2.53" depart="190.33">
        <route edges="1to0 0to2"/>
    </vehicle>
    <vehicle id="2to1.49" depart="196.41">
        <route edges="2to0 0to1"/>
    </vehicle>
    <vehicle id="4to2.5" depart="196.88">
        <route edges="4to0 0to2"/>
    </vehicle>
    <vehicle id="2to1.50" depart="199.05">
        <route edges="2to0 0to1"/>
    </vehicle>
    <vehicle id="4to2.6" depart="200.88">
        <route edges="4to0 0to2"/>
    </vehicle>
    <vehicle id="1to2.54" depart="201.67">
        <route edges="1to0 0to2"/>
    </vehicle>
    <vehicle id="1to2.55" depart="203.31">
        <route edges="1to0 0to2"/>
    </vehicle>
    <vehicle id="2to4.2" depart="205.47">
        <route edges="2to0 0to4"/>
    </vehicle>
    <vehicle id="2to3.2" depart="205.50">
        <route edges="2to0 0to3"/>
    </vehicle>
    <vehicle id="1to2.56" depart="207.54">
        <route edges="1to0 0to2"/>
    </vehicle>
    <vehicle id="1to2.57" depart="207.72">
        <route edges="1to0 0to2"/>
    </vehicle>
    <vehicle id="2to1.51" depart="209.51">
        <route edges="2to0 0to1"/>
    </vehicle>
    <vehicle id="4to3.3" depart="209.76">
        <route edges="4to0 0to3"/>
    </vehicle>
    <vehicle id="3to4.0" depart="211.05">
        <route edges="3to0 0to4"/>
    </vehicle>
    <vehicle id="1to2.58" depart="212.57">
        <route edges="1to0 0to2"/>
    </vehicle>
    <vehicle id="2to3.3" depart="214.16">
        <route edges="2to0 0to3"/>
    </vehicle>
    <vehicle id="3to1.0" depart="214.47">
        <route edges="3to0 0to1"/>
    </vehicle>
    <vehicle id="1to2.59" depart="216.11">
        <route edges="1to0 0to2"/>
    </vehicle>
    <vehicle id="1to2.60" depart="217.72">
        <route edges="1to0 0to2"/>
    </vehicle>
    <vehicle id="2to1.52" depart="218.29">
        <route edges="2to0 0to1"/>
    </vehicle>
    <vehicle id="2to1.53" depart="219.63">
        <route edges="2to0 0to1"/>
    </vehicle>
    <vehicle id="2to1.54" depart="220.63">
        <route edges="2to0 0to1"/>
    </vehicle>
    <vehicle id="1to2.61" depart="221.44">
        <route edges="1to0 0to2"/>
    </vehicle>
    <vehicle id="4to3.4" depart="226.67">
        <route edges="4to0 0to3"/>
    </vehicle>
    <vehicle id="3to4.1" depart="227.12">
        <route edges="3to0 0to4"/>
    </vehicle>
    <vehicle id="2to1.55" depart="230.51">
        <route edges="2to0 0to1"/>
    </vehicle>
    <vehicle id="1to2.62" depart="233.82">
        <route edges="1to0 0to2"/>
    </vehicle>
    <vehicle id="1to2.63" depart="233.84">
        <route edges="1to0 0to2"/>
    </vehicle>
    <vehicle id="4to3.5" depart="234.49">
        <route edges="4to0 0to3"/>
    </vehicle>
    <vehicle id="1to2.64" depart="234.93">
        <route edges="1to0 0to2"/>
    </vehicle>
    <vehicle id="1to2.65" depart="235.24">
        <route edges="1to0 0to2"/>
    </vehicle>
    <vehicle id="1to2.66" depart="235.89">
        <route edges="1to0 0to2"/>
    </vehicle>
    <vehicle id="1to2.67" depart="235.96">
        <route edges="1to0 0to2"/>
    </vehicle>
    <vehicle id="1to2.68" depart="238.38">
        <route edges="1to0 0to2"/>
    </vehicle>
    <vehicle id="2to1.56" depart="238.57">
        <route edges="2to0 0to1"/>
    </vehicle>
    <vehicle id="2to1.57" depart="238.84">
        <route edges="2to0 0to1"/>
    </vehicle>
    <vehicle id="1to2.69" depart="243.98">
        <route edges="1to0 0to2"/>
    </vehicle>
    <vehicle id="2to1.58" depart="245.05">
        <route edges="2to0 0to1"/>
    </vehicle>
    <vehicle id="1to2.70" depart="253.63">
        <route edges="1to0 0to2"/>
    </vehicle>
    <vehicle id="2to1.59" depart="254.58">
        <route edges="2to0 0to1"/>
    </vehicle>
    <vehicle id="1to2.71" depart="262.10">
        <route edges="1to0 0to2"/>
    </vehicle>
    <vehicle id="2to1.60" depart="263.89">
        <route edges="2to0 0to1"/>
    </vehicle>
    <vehicle id="2to1.61" depart="267.62">
        <route edges="2to0 0to1"/>
    </vehicle>
    <vehicle id="2to3.4" depart="270.99">
        <route edges="2to0 0to3"/>
    </vehicle>
    <vehicle id="1to2.72" depart="271.96">
        <route edges="1to0 0to2"/>
    </vehicle>
    <vehicle id="2to1.62" depart="276.26">
        <route edges="2to0 0to1"/>
    </vehicle>
    <vehicle id="1to2.73" depart="279.36">
        <route edges="1to0 0to2"/>
    </vehicle>
    <vehicle id="2to3.5" depart="283.90">
        <route edges="2to0 0to3"/>
    </vehicle>
    <vehicle id="2to1.63" depart="287.85">
        <route edges="2to0 0to1"/>
    </vehicle>
    <vehicle id="3to1.1" depart="288.35">
        <route edges="3to0 0to1"/>
    </vehicle>
    <vehicle id="4to3.6" depart="289.45">
        <route edges="4to0 0to3"/>
    </vehicle>
    <vehicle id="1to2.74" depart="289.55">
        <route edges="1to0 0to2"/>
    </vehicle>
    <vehicle id="2to1.64" depart="290.01">
        <route edges="2to0 0to1"/>
    </vehicle>
    <vehicle id="3to2.4" depart="293.23">
        <route edges="3to0 0to2"/>
    </vehicle>
    <vehicle id="4to3.7" depart="297.01">
        <route edges="4to0 0to3"/>
    </vehicle>
    <vType id="bus" length="10.00" maxSpeed="27.80" vClass="bus" guiShape="bus" accel="0.7" decel="5.0" sigma="0.0"/>
    <vehicle id="1to3.0" type="bus" depart="297.49">
        <route edges="1to0 0to3"/>
    </vehicle>
    <vehicle id="2to1.65" depart="304.24">
        <route edges="2to0 0to1"/>
    </vehicle>
    <vehicle id="2to1.66" depart="304.58">
        <route edges="2to0 0to1"/>
    </vehicle>
    <vehicle id="1to2.75" depart="305.35">
        <route edges="1to0 0to2"/>
    </vehicle>
    <vehicle id="1to2.76" depart="305.79">
        <route edges="1to0 0to2"/>
    </vehicle>
    <vehicle id="2to1.67" depart="307.09">
        <route edges="2to0 0to1"/>
    </vehicle>
    <vehicle id="1to2.77" depart="308.16">
        <route edges="1to0 0to2"/>
    </vehicle>
    <vehicle id="2to1.68" depart="310.25">
        <route edges="2to0 0to1"/>
    </vehicle>
    <vehicle id="2to1.69" depart="311.33">
        <route edges="2to0 0to1"/>
    </vehicle>
    <vehicle id="2to1.70" depart="311.58">
        <route edges="2to0 0to1"/>
    </vehicle>
    <vehicle id="2to1.71" depart="315.31">
        <route edges="2to0 0to1"/>
    </vehicle>
    <vehicle id="2to1.72" depart="315.53">
        <route edges="2to0 0to1"/>
    </vehicle>
    <vehicle id="1to2.78" depart="318.11">
        <route edges="1to0 0to2"/>
    </vehicle>
    <vehicle id="1to2.79" depart="318.99">
        <route edges="1to0 0to2"/>
    </vehicle>
    <vehicle id="2to1.73" depart="319.46">
        <route edges="2to0 0to1"/>
    </vehicle>
    <vehicle id="2to1.74" depart="319.61">
        <route edges="2to0 0to1"/>
    </vehicle>
    <vehicle id="3to1.2" depart="321.07">
        <route edges="3to0 0to1"/>
    </vehicle>
    <vehicle id="3to4.2" depart="321.76">
        <route edges="3to0 0to4"/>
    </vehicle>
    <vehicle id="2to1.75" depart="322.82">
        <route edges="2to0 0to1"/>
    </vehicle>
    <vehicle id="1to2.80" depart="324.10">
        <route edges="1to0 0to2"/>
    </vehicle>
    <vehicle id="2to3.6" depart="324.24">
        <route edges="2to0 0to3"/>
    </vehicle>
    <vehicle id="1to2.81" depart="325.69">
        <route edges="1to0 0to2"/>
    </vehicle>
    <vehicle id="2to1.76" depart="326.13">
        <route edges="2to0 0to1"/>
    </vehicle>
    <vehicle id="2to1.77" depart="326.23">
        <route edges="2to0 0to1"/>
    </vehicle>
    <vehicle id="3to4.3" depart="333.90">
        <route edges="3to0 0to4"/>
    </vehicle>
    <vehicle id="2to1.78" depart="334.23">
        <route edges="2to0 0to1"/>
    </vehicle>
    <vehicle id="1to2.82" depart="339.17">
        <route edges="1to0 0to2"/>
    </vehicle>
    <vehicle id="2to1.79" depart="343.32">
        <route edges="2to0 0to1"/>
    </vehicle>
    <vehicle id="2to1.80" depart="343.65">
        <route edges="2to0 0to1"/>
    </vehicle>
    <vehicle id="4to3.8" depart="344.18">
        <route edges="4to0 0to3"/>
    </vehicle>
    <vehicle id="3to2.5" depart="345.31">
        <route edges="3to0 0to2"/>
    </vehicle>
    <vehicle id="1to2.83" depart="345.45">
        <route edges="1to0 0to2"/>
    </vehicle>
    <vehicle id="1to2.84" depart="345.65">
        <route edges="1to0 0to2"/>
    </vehicle>
    <vehicle id="2to1.81" depart="350.56">
        <route edges="2to0 0to1"/>
    </vehicle>
    <vehicle id="2to1.82" depart="352.22">
        <route edges="2to0 0to1"/>
    </vehicle>
    <vehicle id="1to2.85" depart="352.32">
        <route edges="1to0 0to2"/>
    </vehicle>
    <vehicle id="1to2.86" depart="353.09">
        <route edges="1to0 0to2"/>
    </vehicle>
    <vehicle id="2to1.83" depart="354.87">
        <route edges="2to0 0to1"/>
    </vehicle>
    <vehicle id="3to1.3" depart="357.37">
        <route edges="3to0 0to1"/>
    </vehicle>
    <vehicle id="2to1.84" depart="359.21">
        <route edges="2to0 0to1"/>
    </vehicle>
    <vehicle id="4to3.9" depart="361.67">
        <route edges="4to0 0to3"/>
    </vehicle>
    <vehicle id="2to1.85" depart="363.26">
        <route edges="2to0 0to1"/>
    </vehicle>
    <vehicle id="1to2.87" depart="363.29">
        <route edges="1to0 0to2"/>
    </vehicle>
    <vehicle id="2to1.86" depart="363.53">
        <route edges="2to0 0to1"/>
    </vehicle>
    <vehicle id="2to1.87" depart="363.58">
        <route edges="2to0 0to1"/>
    </vehicle>
    <vehicle id="2to1.88" depart="368.74">
        <route edges="2to0 0to1"/>
    </vehicle>
    <vehicle id="2to1.89" depart="368.78">
        <route edges="2to0 0to1"/>
    </vehicle>
    <vehicle id="3to1.4" depart="370.73">
        <route edges="3to0 0to1"/>
    </vehicle>
    <vehicle id="2to1.90" depart="370.79">
        <route edges="2to0 0to1"/>
    </vehicle>
    <vehicle id="2to1.91" depart="374.58">
        <route edges="2to0 0to1"/>
    </vehicle>
    <vehicle id="2to1.92" depart="377.98">
        <route edges="2to0 0to1"/>
    </vehicle>
    <vehicle id="1to2.88" depart="381.92">
        <route edges="1to0 0to2"/>
    </vehicle>
    <vehicle id="2to1.93" depart="382.76">
        <route edges="2to0 0to1"/>
    </vehicle>
    <vehicle id="2to1.94" depart="382.85">
        <route edges="2to0 0to1"/>
    </vehicle>
    <vehicle id="1to2.89" depart="386.17">
        <route edges="1to0 0to2"/>
    </vehicle>
    <vehicle id="2to1.95" depart="388.70">
        <route edges="2to0 0to1"/>
    </vehicle>
    <vehicle id="2to1.96" depart="390.27">
        <route edges="2to0 0to1"/>
    </vehicle>
    <vehicle id="1to3.1" type="bus" depart="390.93">
        <route edges="1to0 0to3"/>
    </vehicle>
    <vehicle id="2to1.97" depart="394.04">
        <route edges="2to0 0to1"/>
    </vehicle>
    <vehicle id="4to2.7" depart="397.78">
        <route edges="4to0 0to2"/>
    </vehicle>
    <vehicle id="2to1.98" depart="397.95">
        <route edges="2to0 0to1"/>
    </vehicle>
    <vehicle id="1to2.90" depart="397.98">
        <route edges="1to0 0to2"/>
    </vehicle>
    <vehicle id="3to1.5" depart="398.44">
        <route edges="3to0 0to1"/>
    </vehicle>
    <vehicle id="2to1.99" depart="398.48">
        <route edges="2to0 0to1"/>
    </vehicle>
    <vehicle id="2to1.100" depart="399.76">
        <route edges="2to0 0to1"/>
    </vehicle>
    <vehicle id="1to2.91" depart="399.84">
        <route edges="1to0 0to2"/>
    </vehicle>
    <vehicle id="1to3.2" type="bus" depart="400.80">
        <route edges="1to0 0to3"/>
    </vehicle>
    <vehicle id="1to2.92" depart="401.16">
        <route edges="1to0 0to2"/>
    </vehicle>
    <vehicle id="1to2.93" depart="401.49">
        <route edges="1to0 0to2"/>
    </vehicle>
    <vehicle id="2to1.101" depart="407.58">
        <route edges="2to0 0to1"/>
    </vehicle>
    <vehicle id="3to4.4" depart="408.37">
        <route edges="3to0 0to4"/>
    </vehicle>
    <vehicle id="3to2.6" depart="409.88">
        <route edges="3to0 0to2"/>
    </vehicle>
    <vehicle id="1to2.94" depart="410.45">
        <route edges="1to0 0to2"/>
    </vehicle>
    <vehicle id="1to2.95" depart="410.68">
        <route edges="1to0 0to2"/>
    </vehicle>
    <vehicle id="2to1.102" depart="416.17">
        <route edges="2to0 0to1"/>
    </vehicle>
    <vehicle id="2to1.103" depart="416.30">
        <route edges="2to0 0to1"/>
    </vehicle>
    <vehicle id="1to2.96" depart="417.29">
        <route edges="1to0 0to2"/>
    </vehicle>
    <vehicle id="1to2.97" depart="420.07">
        <route edges="1to0 0to2"/>
    </vehicle>
    <vehicle id="2to1.104" depart="421.24">
        <route edges="2to0 0to1"/>
    </vehicle>
    <vehicle id="2to1.105" depart="421.53">
        <route edges="2to0 0to1"/>
    </vehicle>
    <vehicle id="2to1.106" depart="423.59">
        <route edges="2to0 0to1"/>
    </vehicle>
    <vehicle id="1to2.98" depart="423.68">
        <route edges="1to0 0to2"/>
    </vehicle>
    <vehicle id="2to1.107" depart="424.84">
        <route edges="2to0 0to1"/>
    </vehicle>
    <vehicle id="2to1.108" depart="425.96">
        <route edges="2to0 0to1"/>
    </vehicle>
    <vehicle id="4to2.8" depart="426.92">
        <route edges="4to0 0to2"/>
    </vehicle>
    <vehicle id="2to1.109" depart="427.36">
        <route edges="2to0 0to1"/>
    </vehicle>
    <vehicle id="1to2.99" depart="427.60">
        <route edges="1to0 0to2"/>
    </vehicle>
    <vehicle id="1to2.100" depart="431.37">
        <route edges="1to0 0to2"/>
    </vehicle>
    <vehicle id="2to1.110" depart="431.65">
        <route edges="2to0 0to1"/>
    </vehicle>
    <vehicle id="1to2.101" depart="433.86">
        <route edges="1to0 0to2"/>
    </vehicle>
    <vehicle id="1to2.102" depart="433.87">
        <route edges="1to0 0to2"/>
    </vehicle>
    <vehicle id="2to1.111" depart="435.93">
        <route edges="2to0 0to1"/>
    </vehicle>
    <vehicle id="1to2.103" depart="436.43">
        <route edges="1to0 0to2"/>
    </vehicle>
    <vehicle id="2to1.112" depart="438.42">
        <route edges="2to0 0to1"/>
    </vehicle>
    <vehicle id="1to2.104" depart="439.25">
        <route edges="1to0 0to2"/>
    </vehicle>
    <vehicle id="1to2.105" depart="440.35">
        <route edges="1to0 0to2"/>
    </vehicle>
    <vehicle id="2to3.7" depart="441.97">
        <route edges="2to0 0to3"/>
    </vehicle>
    <vehicle id="3to4.5" depart="446.50">
        <route edges="3to0 0to4"/>
    </vehicle>
    <vehicle id="1to2.106" depart="447.19">
        <route edges="1to0 0to2"/>
    </vehicle>
    <vehicle id="1to2.107" depart="448.25">
        <route edges="1to0 0to2"/>
    </vehicle>
    <vehicle id="2to1.113" depart="448.66">
        <route edges="2to0 0to1"/>
    </vehicle>
    <vehicle id="2to1.114" depart="448.92">
        <route edges="2to0 0to1"/>
    </vehicle>
    <vehicle id="2to1.115" depart="449.19">
        <route edges="2to0 0to1"/>
    </vehicle>
    <vehicle id="2to3.8" depart="460.64">
        <route edges="2to0 0to3"/>
    </vehicle>
    <vehicle id="2to1.116" depart="463.60">
        <route edges="2to0 0to1"/>
    </vehicle>
    <vehicle id="2to1.117" depart="464.22">
        <route edges="2to0 0to1"/>
    </vehicle>
    <vehicle id="2to3.9" depart="466.91">
        <route edges="2to0 0to3"/>
    </vehicle>
    <vehicle id="1to3.3" type="bus" depart="469.07">
        <route edges="1to0 0to3"/>
    </vehicle>
    <vehicle id="1to2.108" depart="469.38">
        <route edges="1to0 0to2"/>
    </vehicle>
    <vehicle id="2to1.118" depart="470.10">
        <route edges="2to0 0to1"/>
    </vehicle>
    <vehicle id="1to2.109" depart="474.44">
        <route edges="1to0 0to2"/>
    </vehicle>
    <vehicle id="2to4.3" depart="475.68">
        <route edges="2to0 0to4"/>
    </vehicle>
    <vehicle id="2to4.4" depart="475.91">
        <route edges="2to0 0to4"/>
    </vehicle>
    <vehicle id="1to2.110" depart="476.04">
        <route edges="1to0 0to2"/>
    </vehicle>
    <vehicle id="1to3.4" type="bus" depart="476.94">
        <route edges="1to0 0to3"/>
    </vehicle>
    <vehicle id="1to2.111" depart="477.63">
        <route edges="1to0 0to2"/>
    </vehicle>
    <vehicle id="1to2.112" depart="484.43">
        <route edges="1to0 0to2"/>
    </vehicle>
    <vehicle id="2to1.119" depart="484.74">
        <route edges="2to0 0to1"/>
    </vehicle>
    <vehicle id="2to1.120" depart="485.72">
        <route edges="2to0 0to1"/>
    </vehicle>
    <vehicle id="2to1.121" depart="487.16">
        <route edges="2to0 0to1"/>
    </vehicle>
    <vehicle id="1to2.113" depart="487.56">
        <route edges="1to0 0to2"/>
    </vehicle>
    <vehicle id="2to1.122" depart="488.60">
        <route edges="2to0 0to1"/>
    </vehicle>
    <vehicle id="3to4.6" depart="489.01">
        <route edges="3to0 0to4"/>
    </vehicle>
    <vehicle id="1to2.114" depart="489.85">
        <route edges="1to0 0to2"/>
    </vehicle>
    <vehicle id="2to1.123" depart="491.59">
        <route edges="2to0 0to1"/>
    </vehicle>
    <vehicle id="1to2.115" depart="492.83">
        <route edges="1to0 0to2"/>
    </vehicle>
    <vehicle id="1to2.116" depart="494.74">
        <route edges="1to0 0to2"/>
    </vehicle>
    <vehicle id="3to2.7" depart="496.56">
        <route edges="3to0 0to2"/>
    </vehicle>
    <vehicle id="4to3.10" depart="505.51">
        <route edges="4to0 0to3"/>
    </vehicle>
    <vehicle id="2to1.124" depart="506.14">
        <route edges="2to0 0to1"/>
    </vehicle>
    <vehicle id="2to1.125" depart="509.67">
        <route edges="2to0 0to1"/>
    </vehicle>
    <vehicle id="1to2.117" depart="511.61">
        <route edges="1to0 0to2"/>
    </vehicle>
    <vehicle id="2to3.10" depart="512.05">
        <route edges="2to0 0to3"/>
    </vehicle>
    <vehicle id="2to1.126" depart="517.46">
        <route edges="2to0 0to1"/>
    </vehicle>
    <vehicle id="4to3.11" depart="520.27">
        <route edges="4to0 0to3"/>
    </vehicle>
    <vehicle id="1to2.118" depart="523.55">
        <route edges="1to0 0to2"/>
    </vehicle>
    <vehicle id="1to2.119" depart="526.88">
        <route edges="1to0 0to2"/>
    </vehicle>
    <vehicle id="1to2.120" depart="527.81">
        <route edges="1to0 0to2"/>
    </vehicle>
    <vehicle id="1to2.121" depart="532.20">
        <route edges="1to0 0to2"/>
    </vehicle>
    <vehicle id="2to3.11" depart="532.55">
        <route edges="2to0 0to3"/>
    </vehicle>
    <vehicle id="1to2.122" depart="534.60">