<?xml version="1.0" encoding="UTF-8"?>

<!-- generated on 03/20/19 15:10:13 by Eclipse SUMO duarouter Version 1.1.0
<configuration xmlns:xsi="http://www.w3.org/2001/XMLSchema-instance" xsi:noNamespaceSchemaLocation="http://sumo.dlr.de/xsd/duarouterConfiguration.xsd">

    <input>
        <net-file value="net.net.xml"/>
        <route-files value="flow.rou.xml"/>
    </input>

    <output>
        <output-file value="routes.rou.xml"/>
        <alternatives-output value="routes.rou.alt.xml"/>
    </output>

    <processing>
        <randomize-flows value="true"/>
    </processing>

</configuration>
-->

<routes xmlns:xsi="http://www.w3.org/2001/XMLSchema-instance" xsi:noNamespaceSchemaLocation="http://sumo.dlr.de/xsd/routes_file.xsd">
    <vehicle id="1to2.0" depart="0.79">
        <route edges="1to0 0to2"/>
    </vehicle>
    <vehicle id="1to2.1" depart="2.36">
        <route edges="1to0 0to2"/>
    </vehicle>
    <vehicle id="3to2.0" depart="2.75">
        <route edges="3to0 0to2"/>
    </vehicle>
    <vehicle id="2to1.0" depart="2.83">
        <route edges="2to0 0to1"/>
    </vehicle>
    <vehicle id="3to1.0" depart="4.77">
        <route edges="3to0 0to1"/>
    </vehicle>
    <vehicle id="2to1.1" depart="6.14">
        <route edges="2to0 0to1"/>
    </vehicle>
    <vehicle id="2to1.2" depart="8.55">
        <route edges="2to0 0to1"/>
    </vehicle>
    <vehicle id="3to2.1" depart="8.91">
        <route edges="3to0 0to2"/>
    </vehicle>
    <vType id="bus" length="10.00" maxSpeed="100.00" vClass="bus" guiShape="bus" accel="0.7" decel="5.0" sigma="0.0"/>
    <vehicle id="1to3.0" type="bus" depart="9.74">
        <route edges="1to0 0to3"/>
    </vehicle>
    <vehicle id="2to1.3" depart="11.12">
        <route edges="2to0 0to1"/>
    </vehicle>
    <vehicle id="2to1.4" depart="12.93">
        <route edges="2to0 0to1"/>
    </vehicle>
    <vehicle id="1to2.2" depart="13.05">
        <route edges="1to0 0to2"/>
    </vehicle>
    <vehicle id="1to2.3" depart="13.56">
        <route edges="1to0 0to2"/>
    </vehicle>
    <vehicle id="1to2.4" depart="16.72">
        <route edges="1to0 0to2"/>
    </vehicle>
    <vehicle id="3to2.2" depart="17.15">
        <route edges="3to0 0to2"/>
    </vehicle>
    <vehicle id="1to2.5" depart="18.13">
        <route edges="1to0 0to2"/>
    </vehicle>
    <vehicle id="1to2.6" depart="18.39">
        <route edges="1to0 0to2"/>
    </vehicle>
    <vehicle id="2to1.5" depart="19.61">
        <route edges="2to0 0to1"/>
    </vehicle>
    <vehicle id="2to1.6" depart="20.23">
        <route edges="2to0 0to1"/>
    </vehicle>
    <vehicle id="2to3.0" depart="20.98">
        <route edges="2to0 0to3"/>
    </vehicle>
    <vehicle id="1to2.7" depart="22.71">
        <route edges="1to0 0to2"/>
    </vehicle>
    <vehicle id="2to1.7" depart="23.05">
        <route edges="2to0 0to1"/>
    </vehicle>
    <vehicle id="4to3.0" depart="24.98">
        <route edges="4to0 0to3"/>
    </vehicle>
    <vehicle id="2to1.8" depart="26.51">
        <route edges="2to0 0to1"/>
    </vehicle>
    <vehicle id="1to2.8" depart="27.48">
        <route edges="1to0 0to2"/>
    </vehicle>
    <vehicle id="2to1.9" depart="36.86">
        <route edges="2to0 0to1"/>
    </vehicle>
    <vehicle id="3to1.1" depart="37.70">
        <route edges="3to0 0to1"/>
    </vehicle>
    <vehicle id="3to1.2" depart="37.74">
        <route edges="3to0 0to1"/>
    </vehicle>
    <vehicle id="1to2.9" depart="39.03">
        <route edges="1to0 0to2"/>
    </vehicle>
    <vehicle id="3to4.0" depart="46.90">
        <route edges="3to0 0to4"/>
    </vehicle>
    <vehicle id="1to2.10" depart="47.01">
        <route edges="1to0 0to2"/>
    </vehicle>
    <vehicle id="1to2.11" depart="50.60">
        <route edges="1to0 0to2"/>
    </vehicle>
    <vehicle id="2to1.10" depart="52.47">
        <route edges="2to0 0to1"/>
    </vehicle>
    <vehicle id="4to2.0" depart="53.69">
        <route edges="4to0 0to2"/>
    </vehicle>
    <vehicle id="3to2.3" depart="54.47">
        <route edges="3to0 0to2"/>
    </vehicle>
    <vehicle id="1to3.1" type="bus" depart="55.65">
        <route edges="1to0 0to3"/>
    </vehicle>
    <vehicle id="4to3.1" depart="56.51">
        <route edges="4to0 0to3"/>
    </vehicle>
    <vehicle id="1to2.12" depart="57.85">
        <route edges="1to0 0to2"/>
    </vehicle>
    <vehicle id="2to3.1" depart="58.23">
        <route edges="2to0 0to3"/>
    </vehicle>
    <vehicle id="2to4.0" depart="64.90">
        <route edges="2to0 0to4"/>
    </vehicle>
    <vehicle id="2to1.11" depart="70.25">
        <route edges="2to0 0to1"/>
    </vehicle>
    <vehicle id="4to2.1" depart="70.72">
        <route edges="4to0 0to2"/>
    </vehicle>
    <vehicle id="3to4.1" depart="73.98">
        <route edges="3to0 0to4"/>
    </vehicle>
    <vehicle id="3to2.4" depart="76.76">
        <route edges="3to0 0to2"/>
    </vehicle>
    <vehicle id="2to1.12" depart="77.89">
        <route edges="2to0 0to1"/>
    </vehicle>
    <vehicle id="2to1.13" depart="79.84">
        <route edges="2to0 0to1"/>
    </vehicle>
    <vehicle id="3to1.3" depart="80.11">
        <route edges="3to0 0to1"/>
    </vehicle>
    <vehicle id="1to2.13" depart="81.63">
        <route edges="1to0 0to2"/>
    </vehicle>
    <vehicle id="2to1.14" depart="82.30">
        <route edges="2to0 0to1"/>
    </vehicle>
    <vehicle id="2to1.15" depart="88.60">
        <route edges="2to0 0to1"/>
    </vehicle>
    <vehicle id="1to2.14" depart="89.59">
        <route edges="1to0 0to2"/>
    </vehicle>
    <vehicle id="3to1.4" depart="89.91">
        <route edges="3to0 0to1"/>
    </vehicle>
    <vehicle id="2to1.16" depart="90.56">
        <route edges="2to0 0to1"/>
    </vehicle>
    <vehicle id="2to4.1" depart="91.39">
        <route edges="2to0 0to4"/>
    </vehicle>
    <vehicle id="2to1.17" depart="94.83">
        <route edges="2to0 0to1"/>
    </vehicle>
    <vehicle id="1to2.15" depart="100.63">
        <route edges="1to0 0to2"/>
    </vehicle>
    <vehicle id="2to1.18" depart="101.43">
        <route edges="2to0 0to1"/>
    </vehicle>
    <vehicle id="2to4.2" depart="105.18">
        <route edges="2to0 0to4"/>
    </vehicle>
    <vehicle id="2to1.19" depart="106.94">
        <route edges="2to0 0to1"/>
    </vehicle>
    <vehicle id="1to2.16" depart="107.79">
        <route edges="1to0 0to2"/>
    </vehicle>
    <vehicle id="2to1.20" depart="107.93">
        <route edges="2to0 0to1"/>
    </vehicle>
    <vehicle id="1to2.17" depart="108.52">
        <route edges="1to0 0to2"/>
    </vehicle>
    <vehicle id="2to1.21" depart="109.27">
        <route edges="2to0 0to1"/>
    </vehicle>
    <vehicle id="2to1.22" depart="111.65">
        <route edges="2to0 0to1"/>
    </vehicle>
    <vehicle id="2to1.23" depart="114.89">
        <route edges="2to0 0to1"/>
    </vehicle>
    <vehicle id="1to2.18" depart="116.59">
        <route edges="1to0 0to2"/>
    </vehicle>
    <vehicle id="1to2.19" depart="121.78">
        <route edges="1to0 0to2"/>
    </vehicle>
    <vehicle id="2to1.24" depart="122.68">
        <route edges="2to0 0to1"/>
    </vehicle>
    <vehicle id="2to1bus.0" type="bus" depart="128.34">
        <route edges="2to0 0to1"/>
    </vehicle>
    <vehicle id="1to2.20" depart="128.54">
        <route edges="1to0 0to2"/>
    </vehicle>
    <vehicle id="2to1.25" depart="130.11">
        <route edges="2to0 0to1"/>
    </vehicle>
    <vehicle id="3to2.5" depart="132.34">
        <route edges="3to0 0to2"/>
    </vehicle>
    <vehicle id="2to1.26" depart="136.66">
        <route edges="2to0 0to1"/>
    </vehicle>
    <vehicle id="2to1.27" depart="139.18">
        <route edges="2to0 0to1"/>
    </vehicle>
    <vehicle id="3to2.6" depart="142.85">
        <route edges="3to0 0to2"/>
    </vehicle>
    <vehicle id="2to1bus.1" type="bus" depart="143.12">
        <route edges="2to0 0to1"/>
    </vehicle>
    <vehicle id="2to1.28" depart="146.94">
        <route edges="2to0 0to1"/>
    </vehicle>
    <vehicle id="4to3.2" depart="148.98">
        <route edges="4to0 0to3"/>
    </vehicle>
    <vehicle id="3to4.2" depart="149.02">
        <route edges="3to0 0to4"/>
    </vehicle>
    <vehicle id="2to1.29" depart="149.63">
        <route edges="2to0 0to1"/>
    </vehicle>
    <vehicle id="2to1.30" depart="150.40">
        <route edges="2to0 0to1"/>
    </vehicle>
    <vehicle id="2to1.31" depart="150.67">
        <route edges="2to0 0to1"/>
    </vehicle>
    <vehicle id="3to2.7" depart="153.28">
        <route edges="3to0 0to2"/>
    </vehicle>
    <vehicle id="3to2.8" depart="153.62">
        <route edges="3to0 0to2"/>
    </vehicle>
    <vehicle id="1to2.21" depart="158.69">
        <route edges="1to0 0to2"/>
    </vehicle>
    <vehicle id="1to2.22" depart="163.02">
        <route edges="1to0 0to2"/>
    </vehicle>
    <vehicle id="3to2.9" depart="167.76">
        <route edges="3to0 0to2"/>
    </vehicle>
    <vehicle id="2to1.32" depart="168.38">
        <route edges="2to0 0to1"/>
    </vehicle>
    <vehicle id="1to2.23" depart="169.47">
        <route edges="1to0 0to2"/>
    </vehicle>
    <vehicle id="1to2.24" depart="169.75">
        <route edges="1to0 0to2"/>
    </vehicle>
    <vehicle id="2to1.33" depart="170.05">
        <route edges="2to0 0to1"/>
    </vehicle>
    <vehicle id="2to1.34" depart="171.44">
        <route edges="2to0 0to1"/>
    </vehicle>
    <vehicle id="1to2.25" depart="179.52">
        <route edges="1to0 0to2"/>
    </vehicle>
    <vehicle id="2to1.35" depart="181.60">
        <route edges="2to0 0to1"/>
    </vehicle>
    <vehicle id="2to3.2" depart="182.42">
        <route edges="2to0 0to3"/>
    </vehicle>
    <vehicle id="1to2.26" depart="186.01">
        <route edges="1to0 0to2"/>
    </vehicle>
    <vehicle id="2to1.36" depart="187.53">
        <route edges="2to0 0to1"/>
    </vehicle>
    <vehicle id="1to2.27" depart="188.13">
        <route edges="1to0 0to2"/>
    </vehicle>
    <vehicle id="2to1.37" depart="188.21">
        <route edges="2to0 0to1"/>
    </vehicle>
    <vehicle id="2to1.38" depart="188.24">
        <route edges="2to0 0to1"/>
    </vehicle>
    <vehicle id="2to1.39" depart="189.20">
        <route edges="2to0 0to1"/>
    </vehicle>
    <vehicle id="2to1.40" depart="189.34">
        <route edges="2to0 0to1"/>
    </vehicle>
    <vehicle id="2to1.41" depart="191.24">
        <route edges="2to0 0to1"/>
    </vehicle>
    <vehicle id="1to2.28" depart="196.41">
        <route edges="1to0 0to2"/>
    </vehicle>
    <vehicle id="2to4.3" depart="200.43">
        <route edges="2to0 0to4"/>
    </vehicle>
    <vehicle id="2to3.3" depart="201.49">
        <route edges="2to0 0to3"/>
    </vehicle>
    <vehicle id="1to2.29" depart="201.67">
        <route edges="1to0 0to2"/>
    </vehicle>
    <vehicle id="4to3.3" depart="202.67">
        <route edges="4to0 0to3"/>
    </vehicle>
    <vehicle id="2to1.42" depart="202.94">
        <route edges="2to0 0to1"/>
    </vehicle>
    <vehicle id="3to1.5" depart="204.30">
        <route edges="3to0 0to1"/>
    </vehicle>
    <vehicle id="2to1.43" depart="207.58">
        <route edges="2to0 0to1"/>
    </vehicle>
    <vehicle id="1to2.30" depart="207.72">
        <route edges="1to0 0to2"/>
    </vehicle>
    <vehicle id="2to1.44" depart="208.04">
        <route edges="2to0 0to1"/>
    </vehicle>
    <vehicle id="1to2.31" depart="209.51">
        <route edges="1to0 0to2"/>
    </vehicle>
    <vehicle id="2to1.45" depart="210.76">
        <route edges="2to0 0to1"/>
    </vehicle>
    <vehicle id="1to2.32" depart="211.05">
        <route edges="1to0 0to2"/>
    </vehicle>
    <vehicle id="1to2.33" depart="212.57">
        <route edges="1to0 0to2"/>
    </vehicle>
    <vehicle id="1to2.34" depart="214.16">
        <route edges="1to0 0to2"/>
    </vehicle>
    <vehicle id="2to1.46" depart="215.86">
        <route edges="2to0 0to1"/>
    </vehicle>
    <vehicle id="3to2.10" depart="217.98">
        <route edges="3to0 0to2"/>
    </vehicle>
    <vehicle id="2to1.47" depart="220.26">
        <route edges="2to0 0to1"/>
    </vehicle>
    <vehicle id="2to1.48" depart="220.65">
        <route edges="2to0 0to1"/>
    </vehicle>
    <vehicle id="2to1.49" depart="222.36">
        <route edges="2to0 0to1"/>
    </vehicle>
    <vehicle id="2to3.4" depart="222.41">
        <route edges="2to0 0to3"/>
    </vehicle>
    <vehicle id="3to4.3" depart="222.49">
        <route edges="3to0 0to4"/>
    </vehicle>
    <vehicle id="2to1.50" depart="224.07">
        <route edges="2to0 0to1"/>
    </vehicle>
    <vehicle id="2to1.51" depart="225.98">
        <route edges="2to0 0to1"/>
    </vehicle>
    <vehicle id="2to1.52" depart="229.60">
        <route edges="2to0 0to1"/>
    </vehicle>
    <vehicle id="2to1.53" depart="235.68">
        <route edges="2to0 0to1"/>
    </vehicle>
    <vehicle id="1to2.35" depart="238.38">
        <route edges="1to0 0to2"/>
    </vehicle>
    <vehicle id="2to1.54" depart="240.76">
        <route edges="2to0 0to1"/>
    </vehicle>
    <vehicle id="3to2.11" depart="240.79">
        <route edges="3to0 0to2"/>
    </vehicle>
    <vehicle id="2to1.55" depart="241.82">
        <route edges="2to0 0to1"/>
    </vehicle>
    <vehicle id="2to1.56" depart="242.93">
        <route edges="2to0 0to1"/>
    </vehicle>
    <vehicle id="3to1.6" depart="243.94">
        <route edges="3to0 0to1"/>
    </vehicle>
    <vehicle id="2to1.57" depart="244.16">
        <route edges="2to0 0to1"/>
    </vehicle>
    <vehicle id="3to4.4" depart="245.75">
        <route edges="3to0 0to4"/>
    </vehicle>
    <vehicle id="2to3.5" depart="245.88">
        <route edges="2to0 0to3"/>
    </vehicle>
    <vehicle id="2to1.58" depart="254.09">
        <route edges="2to0 0to1"/>
    </vehicle>
    <vehicle id="2to1.59" depart="260.97">
        <route edges="2to0 0to1"/>
    </vehicle>
    <vehicle id="3to2.12" depart="262.38">
        <route edges="3to0 0to2"/>
    </vehicle>
    <vehicle id="2to1.60" depart="265.28">
        <route edges="2to0 0to1"/>
    </vehicle>
    <vehicle id="3to2.13" depart="265.77">
        <route edges="3to0 0to2"/>
    </vehicle>
    <vehicle id="2to1.61" depart="269.15">
        <route edges="2to0 0to1"/>
    </vehicle>
    <vehicle id="2to4.4" depart="272.92">
        <route edges="2to0 0to4"/>
    </vehicle>
    <vehicle id="2to1.62" depart="276.27">
        <route edges="2to0 0to1"/>
    </vehicle>
    <vehicle id="4to3.4" depart="278.44">
        <route edges="4to0 0to3"/>
    </vehicle>
    <vehicle id="2to4.5" depart="278.64">
        <route edges="2to0 0to4"/>
    </vehicle>
    <vehicle id="2to1.63" depart="280.53">
        <route edges="2to0 0to1"/>
    </vehicle>
    <vehicle id="2to1.64" depart="282.70">
        <route edges="2to0 0to1"/>
    </vehicle>
    <vehicle id="4to3.5" depart="284.18">
        <route edges="4to0 0to3"/>
    </vehicle>
    <vehicle id="1to2.36" depart="289.45">
        <route edges="1to0 0to2"/>
    </vehicle>
    <vehicle id="2to1.65" depart="292.21">
        <route edges="2to0 0to1"/>
    </vehicle>
    <vehicle id="2to1.66" depart="292.32">
        <route edges="2to0 0to1"/>
    </vehicle>
    <vehicle id="2to1.67" depart="294.01">
        <route edges="2to0 0to1"/>
    </vehicle>
    <vehicle id="3to2.14" depart="300.47">
        <route edges="3to0 0to2"/>
    </vehicle>
    <vehicle id="3to2.15" depart="302.97">
        <route edges="3to0 0to2"/>
    </vehicle>
    <vehicle id="2to1.68" depart="305.15">
        <route edges="2to0 0to1"/>
    </vehicle>
    <vehicle id="2to1.69" depart="306.36">
        <route edges="2to0 0to1"/>
    </vehicle>
    <vehicle id="3to1.7" depart="307.23">
        <route edges="3to0 0to1"/>
    </vehicle>
    <vehicle id="2to1bus.2" type="bus" depart="309.17">
        <route edges="2to0 0to1"/>
    </vehicle>
    <vehicle id="1to2.37" depart="311.58">
        <route edges="1to0 0to2"/>
    </vehicle>
    <vehicle id="2to1.70" depart="312.98">
        <route edges="2to0 0to1"/>
    </vehicle>
    <vehicle id="4to2.2" depart="312.99">
        <route edges="4to0 0to2"/>
    </vehicle>
    <vehicle id="4to2.3" depart="313.31">
        <route edges="4to0 0to2"/>
    </vehicle>
    <vehicle id="2to1.71" depart="314.38">
        <route edges="2to0 0to1"/>
    </vehicle>
    <vehicle id="3to2.16" depart="315.21">
        <route edges="3to0 0to2"/>
    </vehicle>
    <vehicle id="1to2.38" depart="315.31">
        <route edges="1to0 0to2"/>
    </vehicle>
    <vehicle id="1to2.39" depart="319.61">
        <route edges="1to0 0to2"/>
    </vehicle>
    <vehicle id="2to1.72" depart="320.66">
        <route edges="2to0 0to1"/>
    </vehicle>
    <vehicle id="1to2.40" depart="321.07">
        <route edges="1to0 0to2"/>
    </vehicle>
    <vehicle id="1to2.41" depart="322.82">
        <route edges="1to0 0to2"/>
    </vehicle>
    <vehicle id="1to2.42" depart="325.69">
        <route edges="1to0 0to2"/>
    </vehicle>
    <vehicle id="2to1.73" depart="326.27">
        <route edges="2to0 0to1"/>
    </vehicle>
    <vehicle id="2to1.74" depart="327.86">
        <route edges="2to0 0to1"/>
    </vehicle>
    <vehicle id="2to1.75" depart="331.23">
        <route edges="2to0 0to1"/>
    </vehicle>
    <vehicle id="4to2.4" depart="335.03">
        <route edges="4to0 0to2"/>
    </vehicle>
    <vehicle id="2to1.76" depart="337.63">
        <route edges="2to0 0to1"/>
    </vehicle>
    <vehicle id="2to3.6" depart="339.76">
        <route edges="2to0 0to3"/>
    </vehicle>
    <vehicle id="2to1.77" depart="340.73">
        <route edges="2to0 0to1"/>
    </vehicle>
    <vehicle id="3to4.5" depart="340.80">
        <route edges="3to0 0to4"/>
    </vehicle>
    <vehicle id="3to2.17" depart="342.66">
        <route edges="3to0 0to2"/>
    </vehicle>
    <vehicle id="2to1.78" depart="342.87">
        <route edges="2to0 0to1"/>
    </vehicle>
    <vehicle id="2to1.79" depart="343.35">
        <route edges="2to0 0to1"/>
    </vehicle>
    <vehicle id="2to4.6" depart="344.09">
        <route edges="2to0 0to4"/>
    </vehicle>
    <vehicle id="1to2.43" depart="345.65">
        <route edges="1to0 0to2"/>
    </vehicle>
    <vehicle id="2to1.80" depart="349.67">
        <route edges="2to0 0to1"/>
    </vehicle>
    <vehicle id="3to2.18" depart="350.31">
        <route edges="3to0 0to2"/>
    </vehicle>
    <vehicle id="2to1.81" depart="350.79">
        <route edges="2to0 0to1"/>
    </vehicle>
    <vehicle id="1to2.44" depart="352.22">
        <route edges="1to0 0to2"/>
    </vehicle>
    <vehicle id="1to2.45" depart="352.32">
        <route edges="1to0 0to2"/>
    </vehicle>
    <vehicle id="1to2.46" depart="353.09">
        <route edges="1to0 0to2"/>
    </vehicle>
    <vehicle id="2to3.7" depart="355.36">
        <route edges="2to0 0to3"/>
    </vehicle>
    <vehicle id="2to1.82" depart="357.13">
        <route edges="2to0 0to1"/>
    </vehicle>
    <vehicle id="3to2.19" depart="361.60">
        <route edges="3to0 0to2"/>
    </vehicle>
    <vehicle id="1to2.47" depart="363.29">
        <route edges="1to0 0to2"/>
    </vehicle>
    <vehicle id="1to2.48" depart="363.53">
        <route edges="1to0 0to2"/>
    </vehicle>
    <vehicle id="2to4.7" depart="367.30">
        <route edges="2to0 0to4"/>
    </vehicle>
    <vehicle id="2to1.83" depart="368.31">
        <route edges="2to0 0to1"/>
    </vehicle>
    <vehicle id="1to2.49" depart="368.78">
        <route edges="1to0 0to2"/>
    </vehicle>
    <vehicle id="1to2.50" depart="370.79">
        <route edges="1to0 0to2"/>
    </vehicle>
    <vehicle id="3to4.6" depart="379.27">
        <route edges="3to0 0to4"/>
    </vehicle>
    <vehicle id="2to3.8" depart="379.67">
        <route edges="2to0 0to3"/>
    </vehicle>
    <vehicle id="1to2.51" depart="381.92">
        <route edges="1to0 0to2"/>
    </vehicle>
    <vehicle id="2to1.84" depart="382.07">
        <route edges="2to0 0to1"/>
    </vehicle>
    <vehicle id="2to1.85" depart="382.67">
        <route edges="2to0 0to1"/>
    </vehicle>
    <vehicle id="1to2.52" depart="382.76">
        <route edges="1to0 0to2"/>
    </vehicle>
    <vehicle id="2to3.9" depart="385.18">
        <route edges="2to0 0to3"/>
    </vehicle>
    <vehicle id="1to2.53" depart="386.17">
        <route edges="1to0 0to2"/>
    </vehicle>
    <vehicle id="2to3.10" depart="391.80">
        <route edges="2to0 0to3"/>
    </vehicle>
    <vehicle id="2to1.86" depart="393.73">
        <route edges="2to0 0to1"/>
    </vehicle>
    <vehicle id="2to1bus.3" type="bus" depart="396.42">
        <route edges="2to0 0to1"/>
    </vehicle>
    <vehicle id="1to2.54" depart="397.95">
        <route edges="1to0 0to2"/>
    </vehicle>
    <vehicle id="1to2.55" depart="398.44">
        <route edges="1to0 0to2"/>
    </vehicle>
    <vehicle id="4to2.5" depart="399.03">
        <route edges="4to0 0to2"/>
    </vehicle>
    <vehicle id="1to3.2" type="bus" depart="400.80">
        <route edges="1to0 0to3"/>
    </vehicle>
    <vehicle id="1to2.56" depart="401.16">
        <route edges="1to0 0to2"/>
    </vehicle>
    <vehicle id="1to2.57" depart="401.49">
        <route edges="1to0 0to2"/>
    </vehicle>
    <vehicle id="2to3.11" depart="402.43">
        <route edges="2to0 0to3"/>
    </vehicle>
    <vehicle id="2to4.8" depart="407.22">
        <route edges="2to0 0to4"/>
    </vehicle>
    <vehicle id="1to2.58" depart="407.58">
        <route edges="1to0 0to2"/>
    </vehicle>
    <vehicle id="2to1bus.4" type="bus" depart="409.79">
        <route edges="2to0 0to1"/>
    </vehicle>
    <vehicle id="1to2.59" depart="410.68">
        <route edges="1to0 0to2"/>
    </vehicle>
    <vehicle id="2to1.87" depart="411.21">
        <route edges="2to0 0to1"/>
    </vehicle>
    <vehicle id="2to1.88" depart="411.73">
        <route edges="2to0 0to1"/>
    </vehicle>
    <vehicle id="2to4.9" depart="416.57">
        <route edges="2to0 0to4"/>
    </vehicle>
    <vehicle id="1to2.60" depart="417.29">
        <route edges="1to0 0to2"/>
    </vehicle>
    <vehicle id="4to3.6" depart="417.73">
        <route edges="4to0 0to3"/>
    </vehicle>
    <vehicle id="2to1.89" depart="419.01">
        <route edges="2to0 0to1"/>
    </vehicle>
    <vehicle id="2to1.90" depart="420.02">
        <route edges="2to0 0to1"/>
    </vehicle>
    <vehicle id="2to1.91" depart="420.68">
        <route edges="2to0 0to1"/>
    </vehicle>
    <vehicle id="2to1.92" depart="422.38">
        <route edges="2to0 0to1"/>
    </vehicle>
    <vehicle id="2to1.93" depart="422.96">
        <route edges="2to0 0to1"/>
    </vehicle>
    <vehicle id="1to2.61" depart="423.68">
        <route edges="1to0 0to2"/>
    </vehicle>
    <vehicle id="1to2.62" depart="424.84">
        <route edges="1to0 0to2"/>
    </vehicle>
    <vehicle id="2to1.94" depart="425.10">
        <route edges="2to0 0to1"/>
    </vehicle>
    <vehicle id="1to2.63" depart="425.96">
        <route edges="1to0 0to2"/>
    </vehicle>
    <vehicle id="1to2.64" depart="426.92">
        <route edges="1to0 0to2"/>
    </vehicle>
    <vehicle id="2to1.95" depart="429.67">
        <route edges="2to0 0to1"/>
    </vehicle>
    <vehicle id="1to2.65" depart="433.87">
        <route edges="1to0 0to2"/>
    </vehicle>
    <vehicle id="4to3.7" depart="434.39">
        <route edges="4to0 0to3"/>
    </vehicle>
    <vehicle id="2to1.96" depart="435.18">
        <route edges="2to0 0to1"/>
    </vehicle>
    <vehicle id="1to2.66" depart="435.93">
        <route edges="1to0 0to2"/>
    </vehicle>
    <vehicle id="1to2.67" depart="436.43">
        <route edges="1to0 0to2"/>
    </vehicle>
    <vehicle id="3to1.8" depart="441.84">
        <route edges="3to0 0to1"/>
    </vehicle>
    <vehicle id="1to2.68" depart="441.97">
        <route edges="1to0 0to2"/>
    </vehicle>
    <vehicle id="2to1.97" depart="446.89">
        <route edges="2to0 0to1"/>
    </vehicle>
    <vehicle id="1to2.69" depart="447.19">
        <route edges="1to0 0to2"/>
    </vehicle>
    <vehicle id="1to2.70" depart="448.25">
        <route edges="1to0 0to2"/>
    </vehicle>
    <vehicle id="4to3.8" depart="450.59">
        <route edges="4to0 0to3"/>
    </vehicle>
    <vehicle id="2to1.98" depart="452.31">
        <route edges="2to0 0to1"/>
    </vehicle>
    <vehicle id="2to1bus.5" type="bus" depart="456.61">
        <route edges="2to0 0to1"/>
    </vehicle>
    <vehicle id="2to1.99" depart="461.59">
        <route edges="2to0 0to1"/>
    </vehicle>
    <vehicle id="2to1.100" depart="462.35">
        <route edges="2to0 0to1"/>
    </vehicle>
    <vehicle id="2to1.101" depart="462.52">
        <route edges="2to0 0to1"/>
    </vehicle>
    <vehicle id="2to1.102" depart="462.72">
        <route edges="2to0 0to1"/>
    </vehicle>
    <vehicle id="2to1.103" depart="464.16">
        <route edges="2to0 0to1"/>
    </vehicle>
    <vehicle id="4to3.9" depart="469.46">
        <route edges="4to0 0to3"/>
    </vehicle>
    <vehicle id="3to4.7" depart="475.74">
        <route edges="3to0 0to4"/>
    </vehicle>
    <vehicle id="2to1.104" depart="476.56">
        <route edges="2to0 0to1"/>
    </vehicle>
    <vehicle id="1to3.3" type="bus" depart="476.94">
        <route edges="1to0 0to3"/>
    </vehicle>
    <vehicle id="2to1.105" depart="477.14">
        <route edges="2to0 0to1"/>
    </vehicle>
    <vehicle id="2to1.106" depart="478.93">
        <route edges="2to0 0to1"/>
    </vehicle>
    <vehicle id="2to1.107" depart="479.31">
        <route edges="2to0 0to1"/>
    </vehicle>
    <vehicle id="4to2.6" depart="482.04">
        <route edges="4to0 0to2"/>
    </vehicle>
    <vehicle id="3to2.20" depart="482.68">
        <route edges="3to0 0to2"/>
    </vehicle>
    <vehicle id="3to2.21" depart="484.62">
        <route edges="3to0 0to2"/>
    </vehicle>
    <vehicle id="2to1.108" depart="490.44">
        <route edges="2to0 0to1"/>
    </vehicle>
    <vehicle id="1to2.71" depart="491.59">
        <route edges="1to0 0to2"/>
    </vehicle>
    <vehicle id="1to2.72" depart="494.74">
        <route edges="1to0 0to2"/>
    </vehicle>
    <vehicle id="4to3.10" depart="498.41">
        <route edges="4to0 0to3"/>
    </vehicle>
    <vehicle id="3to1.9" depart="503.37">
        <route edges="3to0 0to1"/>
    </vehicle>
    <vehicle id="2to1.109" depart="505.51">
        <route edges="2to0 0to1"/>
    </vehicle>
    <vehicle id="1to2.73" depart="506.14">
        <route edges="1to0 0to2"/>
    </vehicle>
    <vehicle id="2to3.12" depart="506.44">
        <route edges="2to0 0to3"/>
    </vehicle>
    <vehicle id="2to1.110" depart="508.52">
        <route edges="2to0 0to1"/>
    </vehicle>
    <vehicle id="2to1.111" depart="509.53">
        <route edges="2to0 0to1"/>
    </vehicle>
    <vehicle id="2to1.112" depart="513.50">
        <route edges="2to0 0to1"/>
    </vehicle>
    <vehicle id="2to1.113" depart="521.70">
        <route edges="2to0 0to1"/>
    </vehicle>
    <vehicle id="2to1.114" depart="525.08">
        <route edges="2to0 0to1"/>
    </vehicle>
    <vehicle id="3to4.8" depart="527.29">
        <route edges="3to0 0to4"/>
    </vehicle>
    <vehicle id="2to1.115" depart="541.29">
        <route edges="2to0 0to1"/>
    </vehicle>
    <vehicle id="3to4.9" depart="541.66">
        <route edges="3to0 0to4"/>
    </vehicle>
    <vehicle id="1to2.74" depart="542.30">
        <route edges="1to0 0to2"/>
    </vehicle>
    <vehicle id="2to1.116" depart="546.44">
        <route edges="2to0 0to1"/>
    </vehicle>
    <vehicle id="2to1.117" depart="548.04">
        <route edges="2to0 0to1"/>
    </vehicle>
    <vehicle id="2to1.118" depart="553.25">
        <route edges="2to0 0to1"/>
    </vehicle>
    <vehicle id="3to1.10" depart="554.88">
        <route edges="3to0 0to1"/>
    </vehicle>
    <vehicle id="1to2.75" depart="555.59">
        <route edges="1to0 0to2"/>
    </vehicle>
    <vehicle id="2to1.119" depart="555.69">
        <route edges="2to0 0to1"/>
    </vehicle>
    <vehicle id="2to3.13" depart="555.78">
        <route edges="2to0 0to3"/>
    </vehicle>
    <vehicle id="1to2.76" depart="557.09">
        <route edges="1to0 0to2"/>
    </vehicle>
    <vehicle id="3to2.22" depart="558.66">
        <route edges="3to0 0to2"/>
    </vehicle>
    <vehicle id="1to2.77" depart="558.98">
        <route edges="1to0 0to2"/>
    </vehicle>
    <vehicle id="2to1.120" depart="560.10">
        <route edges="2to0 0to1"/>
    </vehicle>
    <vehicle id="2to1.121" depart="561.79">
        <route edges="2to0 0to1"/>
    </vehicle>
    <vehicle id="2to1.122" depart="561.95">
        <route edges="2to0 0to1"/>
    </vehicle>
    <vehicle id="2to1.123" depart="563.11">
        <route edges="2to0 0to1"/>
    </vehicle>
    <vehicle id="1to2.78" depart="568.32">
        <route edges="1to0 0to2"/>
    </vehicle>
    <vehicle id="2to1.124" depart="571.57">
        <route edges="2to0 0to1"/>
    </vehicle>
    <vehicle id="1to2.79" depart="572.23">
        <route edges="1to0 0to2"/>
    </vehicle>
    <vehicle id="2to1.125" depart="573.43">
        <route edges="2to0 0to1"/>
    </vehicle>
    <vehicle id="2to1.126" depart="574.15">
        <route edges="2to0 0to1"/>
    </vehicle>
    <vehicle id="2to1.127" depart="574.27">
        <route edges="2to0 0to1"/>
    </vehicle>
    <vehicle id="1to2.80" depart="581.56">
        <route edges="1to0 0to2"/>
    </vehicle>
    <vehicle id="2to1.128" depart="582.47">
        <route edges="2to0 0to1"/>
    </vehicle>
    <vehicle id="2to1.129" depart="584.90">
        <route edges="2to0 0to1"/>
    </vehicle>
    <vehicle id="4to3.11" depart="585.67">
        <route edges="4to0 0to3"/>
    </vehicle>
    <vehicle id="4to2.7" depart="585.67">
        <route edges="4to0 0to2"/>
    </vehicle>
    <vehicle id="2to1.130" depart="587.36">
        <route edges="2to0 0to1"/>
    </vehicle>
    <vehicle id="1to2.81" depart="587.90">
        <route edges="1to0 0to2"/>
    </vehicle>
    <vehicle id="1to2.82" depart="592.10">
        <route edges="1to0 0to2"/>
    </vehicle>
    <vehicle id="2to1.131" depart="596.00">
        <route edges="2to0 0to1"/>
    </vehicle>