<additional>
    <vTypeDistribution id="DEFAULT_VEHTYPE">
         <vType id="1" length="3"/>
    </vTypeDistribution>
</additional>