<additional>
    <vTypeDistribution id="DEFAULT_VEHTYPE">
         <vType id="passenger" length="4.0" maxSpeed="100.0" sigma="0.0" accel="1.0" decel="5.0" vClass="passenger" guiShape="passenger"/>
    </vTypeDistribution>
</additional>   